<?xml version='1.0' encoding='UTF-8'?>
<nodes>
  <node id="1676360522" x="-10.450912" y="9.408612" shape="-9.087584,5.149347 -6.225503,7.943716 -6.281956,11.027193 -9.244403,13.714925 -11.813583,13.668087 -14.676094,10.874161 -11.881952,8.011428 -9.087584,5.149347 -9.087584,5.149347"/>
  <node id="249205862" x="-14.66662" y="13.727807" shape="-13.303949,9.468332 -10.441438,12.262258 -13.235756,15.125171 -16.030484,17.986900 -18.892213,15.192172 -19.014658,12.681590 -16.438469,9.621647 -13.303949,9.468332 -13.303949,9.468332"/>
  <node id="249205864" x="5.597027" y="-7.028193" shape="6.960725,-11.287339 9.822563,-8.492723 9.871875,-5.714544 7.111016,-2.820125 4.233699,-2.768928 1.371618,-5.563297 1.244733,-8.056559 3.808344,-11.127048 6.960725,-11.287339 6.960725,-11.287339"/>
  <node id="Custom3" x="-92.636997" y="-51.91601499999999"/>
  <node id="Custom4" x="-69.891988" y="-68.10203299999999"/>
  <node id="Custom5" x="179.391938" y="161.676471"/>
  <node id="Custom6" x="154.609832" y="169.716454"/>
  <node id="Custom7" x="-102.89085899999999" y="104.081974"/>
  <node id="Custom8" x="27.409665" y="-29.365509"/>
</nodes>
