<?xml version="1.0" encoding="UTF-8"?>

<!-- generated on 2024-03-31 14:36:05.145743 by osmWebWizard.py UNKNOWN
<configuration>
    <net-file value="/Users/shripal/Documents/Study/PathFinding/basic_world_net/2024-03-31-14-36-03/osm.net.xml.gz"/>
    <output-trip-file value="/Users/shripal/Documents/Study/PathFinding/basic_world_net/2024-03-31-14-36-03/osm.passenger.trips.xml"/>
    <route-file value="/Users/shripal/Documents/Study/PathFinding/basic_world_net/2024-03-31-14-36-03/osm.passenger.rou.xml"/>
    <prefix value="veh"/>
    <trip-attributes value="departLane=&quot;best&quot;"/>
    <fringe-start-attributes value="departSpeed=&quot;max&quot;"/>
    <vehicle-class value="passenger"/>
    <lanes value="True"/>
    <fringe-factor value="5"/>
    <allow-fringe.min-length value="1000.0"/>
    <via-edge-types value="highway.motorway,highway.motorway_link,highway.trunk_link,highway.primary_link,highway.secondary_link,highway.tertiary_link"/>
    <min-distance value="300.0"/>
    <min-distance.fringe value="10.0"/>
    <remove-loops value="True"/>
    <validate value="True"/>
    <end value="600.0"/>
    <insertion-density value="12.0"/>
</configuration>
-->

<!-- generated on 2024-03-31 14:36:05 by Eclipse SUMO duarouter Version 1.19.0
<configuration xmlns:xsi="http://www.w3.org/2001/XMLSchema-instance" xsi:noNamespaceSchemaLocation="http://sumo.dlr.de/xsd/duarouterConfiguration.xsd">

    <input>
        <net-file value="/Users/shripal/Documents/Study/PathFinding/basic_world_net/2024-03-31-14-36-03/osm.net.xml.gz"/>
        <route-files value="/Users/shripal/Documents/Study/PathFinding/basic_world_net/2024-03-31-14-36-03/osm.passenger.trips.xml"/>
    </input>

    <output>
        <output-file value="/Users/shripal/Documents/Study/PathFinding/basic_world_net/2024-03-31-14-36-03/osm.passenger.trips.xml.tmp"/>
        <alternatives-output value="NUL"/>
        <write-trips value="true"/>
    </output>

    <processing>
        <remove-loops value="true"/>
    </processing>

    <time>
        <begin value="0.0"/>
        <end value="600.0"/>
    </time>

    <report>
        <no-warnings value="true"/>
        <ignore-errors value="true"/>
        <no-step-log value="true"/>
    </report>

</configuration>
-->

<routes xmlns:xsi="http://www.w3.org/2001/XMLSchema-instance" xsi:noNamespaceSchemaLocation="http://sumo.dlr.de/xsd/routes_file.xsd">
    <vType id="veh_passenger" vClass="passenger"/>
    <trip id="veh0" type="veh_passenger" depart="0.00" departLane="best" departSpeed="max" from="-352963640#7" to="-23089283#2"/>
    <trip id="veh2" type="veh_passenger" depart="127.57" departLane="best" departSpeed="max" from="-195024981" to="-23091395#0"/>
    <trip id="veh3" type="veh_passenger" depart="191.35" departLane="best" departSpeed="max" from="23091395#0" to="-23089283#1"/>
    <trip id="veh7" type="veh_passenger" depart="446.48" departLane="best" departSpeed="max" from="-23091391#5" to="-23089283#2"/>
    <trip id="veh9" type="veh_passenger" depart="574.05" departLane="best" from="286772940#1" to="-23091395#0"/>
</routes>
