<?xml version="1.0" encoding="UTF-8"?>

<!-- generated on 2024-04-04 18:28:56.996152 by osmWebWizard.py UNKNOWN
<configuration>
    <net-file value="/Users/shripal/Documents/Study/PathFinding/osm_sumo_final/2024-04-04-18-28-54/osm.net.xml.gz"/>
    <output-trip-file value="/Users/shripal/Documents/Study/PathFinding/osm_sumo_final/2024-04-04-18-28-54/osm.passenger.trips.xml"/>
    <route-file value="/Users/shripal/Documents/Study/PathFinding/osm_sumo_final/2024-04-04-18-28-54/osm.passenger.rou.xml"/>
    <prefix value="veh"/>
    <trip-attributes value="departLane=&quot;best&quot;"/>
    <fringe-start-attributes value="departSpeed=&quot;max&quot;"/>
    <vehicle-class value="passenger"/>
    <lanes value="True"/>
    <fringe-factor value="5"/>
    <allow-fringe.min-length value="1000.0"/>
    <via-edge-types value="highway.motorway,highway.motorway_link,highway.trunk_link,highway.primary_link,highway.secondary_link,highway.tertiary_link"/>
    <min-distance value="300.0"/>
    <min-distance.fringe value="10.0"/>
    <remove-loops value="True"/>
    <validate value="True"/>
    <end value="800.0"/>
    <insertion-density value="12.0"/>
</configuration>
-->

<!-- generated on 2024-04-04 18:28:56 by Eclipse SUMO duarouter Version 1.19.0
<configuration xmlns:xsi="http://www.w3.org/2001/XMLSchema-instance" xsi:noNamespaceSchemaLocation="http://sumo.dlr.de/xsd/duarouterConfiguration.xsd">

    <input>
        <net-file value="/Users/shripal/Documents/Study/PathFinding/osm_sumo_final/2024-04-04-18-28-54/osm.net.xml.gz"/>
        <route-files value="/Users/shripal/Documents/Study/PathFinding/osm_sumo_final/2024-04-04-18-28-54/osm.passenger.trips.xml"/>
    </input>

    <output>
        <output-file value="/Users/shripal/Documents/Study/PathFinding/osm_sumo_final/2024-04-04-18-28-54/osm.passenger.trips.xml.tmp"/>
        <alternatives-output value="NUL"/>
        <write-trips value="true"/>
    </output>

    <processing>
        <remove-loops value="true"/>
    </processing>

    <time>
        <begin value="0.0"/>
        <end value="800.0"/>
    </time>

    <report>
        <no-warnings value="true"/>
        <ignore-errors value="true"/>
        <no-step-log value="true"/>
    </report>

</configuration>
-->

<routes xmlns:xsi="http://www.w3.org/2001/XMLSchema-instance" xsi:noNamespaceSchemaLocation="http://sumo.dlr.de/xsd/routes_file.xsd">
    <vType id="veh_passenger" vClass="passenger"/>
    <trip id="veh0" type="veh_passenger" depart="0.00" departLane="best" from="286772940#1" to="-23091396#0"/>
    <trip id="veh1" type="veh_passenger" depart="78.26" departLane="best" departSpeed="max" from="-195024981" to="-23091396#0"/>
    <trip id="veh2" type="veh_passenger" depart="156.51" departLane="best" from="-619506569#1" to="-23091395"/>
    <trip id="veh3" type="veh_passenger" depart="234.77" departLane="best" departSpeed="max" from="23091395" to="-23089283#1"/>
    <trip id="veh4" type="veh_passenger" depart="313.02" departLane="best" departSpeed="max" from="-23089303#2" to="-23091396#0"/>
    <trip id="veh5" type="veh_passenger" depart="391.28" departLane="best" from="-619506571" to="-23091396#0"/>
    <trip id="veh6" type="veh_passenger" depart="469.54" departLane="best" from="23094442" to="352963640#2"/>
    <trip id="veh7" type="veh_passenger" depart="547.79" departLane="best" departSpeed="max" from="23091395" to="-23089283#3"/>
    <trip id="veh8" type="veh_passenger" depart="626.05" departLane="best" departSpeed="max" from="-619506573#1" to="-23091395"/>
    <trip id="veh9" type="veh_passenger" depart="704.31" departLane="best" departSpeed="max" from="-352963640#6" to="-23089314#1"/>
    <trip id="veh10" type="veh_passenger" depart="782.56" departLane="best" from="23089312#0" to="-23091395"/>
</routes>
