<?xml version='1.0' encoding='UTF-8'?>
<edges>
  <edge id="23089316" from="249205862" to="Custom3" numLanes="1" width="4.0" shape="-16.438469,9.621647 -91.348903,-53.445987 "/>
  <edge id="23089317" from="249205864" to="Custom4" numLanes="1" width="4.0" shape="3.808343,-11.127047 -64.884416,-68.479965 -65.041812,-68.598718 -65.210137,-68.701395 -65.387754,-68.786999 -65.572937,-68.854698 -69.298704,-70.012010 "/>
  <edge id="23091395" from="Custom5" to="249205864" numLanes="1" width="4.0" shape="180.786347,160.242726 123.206641,104.242781 75.188113,56.746016 75.163950,56.722515 11.476569,-4.183894 11.474695,-4.185684 9.871876,-5.714543 "/>
  <edge id="23091396" from="Custom6" to="1676360522" numLanes="1" width="4.0" shape="155.991257,168.270195 106.125173,120.639576 106.100333,120.616251 89.743009,105.516675 89.740201,105.514088 72.819358,89.954047 57.956621,74.484394 57.902081,74.429777 38.715516,55.943577 38.690560,55.919941 22.423984,40.777512 4.993955,23.454777 -5.387975,12.012547 -6.281957,11.027192 "/>
  <edge id="619506572_2" from="249205862" to="Custom7" numLanes="1" width="4.0" shape="-18.892213,15.192172 -37.411331,34.155263 -51.216383,48.290710 -56.435434,53.635233 -78.819883,76.562100 -86.186897,84.109733 -93.358252,91.449798 -104.322252,102.685151 "/>
  <edge id="619506572_1" from="Custom8" to="249205864" numLanes="1" width="4.0" shape="25.978746,-30.762817 6.960725,-11.287339 "/>
  <edge id="619506572_3" from="249205864" to="1676360522" numLanes="1" width="4.0" shape="1.371618,-5.563296 -9.087584,5.149348 "/>
</edges>
