<?xml version="1.0" encoding="UTF-8"?>

<!-- generated on 2024-04-04 18:20:27.422758 by osmWebWizard.py UNKNOWN
<configuration>
    <net-file value="/Users/shripal/Documents/Study/PathFinding/osm_sumo_final/2024-04-04-18-20-24/osm.net.xml.gz"/>
    <output-trip-file value="/Users/shripal/Documents/Study/PathFinding/osm_sumo_final/2024-04-04-18-20-24/osm.passenger.trips.xml"/>
    <route-file value="/Users/shripal/Documents/Study/PathFinding/osm_sumo_final/2024-04-04-18-20-24/osm.passenger.rou.xml"/>
    <prefix value="veh"/>
    <trip-attributes value="departLane=&quot;best&quot;"/>
    <fringe-start-attributes value="departSpeed=&quot;max&quot;"/>
    <vehicle-class value="passenger"/>
    <lanes value="True"/>
    <fringe-factor value="5"/>
    <allow-fringe.min-length value="1000.0"/>
    <via-edge-types value="highway.motorway,highway.motorway_link,highway.trunk_link,highway.primary_link,highway.secondary_link,highway.tertiary_link"/>
    <min-distance value="300.0"/>
    <min-distance.fringe value="10.0"/>
    <remove-loops value="True"/>
    <validate value="True"/>
    <insertion-density value="12.0"/>
</configuration>
-->

<!-- generated on 2024-04-04 18:20:27 by Eclipse SUMO duarouter Version 1.19.0
<configuration xmlns:xsi="http://www.w3.org/2001/XMLSchema-instance" xsi:noNamespaceSchemaLocation="http://sumo.dlr.de/xsd/duarouterConfiguration.xsd">

    <input>
        <net-file value="/Users/shripal/Documents/Study/PathFinding/osm_sumo_final/2024-04-04-18-20-24/osm.net.xml.gz"/>
        <route-files value="/Users/shripal/Documents/Study/PathFinding/osm_sumo_final/2024-04-04-18-20-24/osm.passenger.trips.xml"/>
    </input>

    <output>
        <output-file value="/Users/shripal/Documents/Study/PathFinding/osm_sumo_final/2024-04-04-18-20-24/osm.passenger.trips.xml.tmp"/>
        <alternatives-output value="NUL"/>
        <write-trips value="true"/>
    </output>

    <processing>
        <remove-loops value="true"/>
    </processing>

    <time>
        <begin value="0.0"/>
        <end value="3600.0"/>
    </time>

    <report>
        <no-warnings value="true"/>
        <ignore-errors value="true"/>
        <no-step-log value="true"/>
    </report>

</configuration>
-->

<routes xmlns:xsi="http://www.w3.org/2001/XMLSchema-instance" xsi:noNamespaceSchemaLocation="http://sumo.dlr.de/xsd/routes_file.xsd">
    <vType id="veh_passenger" vClass="passenger"/>
    <trip id="veh0" type="veh_passenger" depart="0.00" departLane="best" from="286772940#1" to="-23091396#0"/>
    <trip id="veh1" type="veh_passenger" depart="78.26" departLane="best" departSpeed="max" from="-195024981" to="-23091396#0"/>
    <trip id="veh2" type="veh_passenger" depart="156.51" departLane="best" from="-619506569#1" to="-23091395"/>
    <trip id="veh3" type="veh_passenger" depart="234.77" departLane="best" departSpeed="max" from="23091395" to="-23089283#1"/>
    <trip id="veh4" type="veh_passenger" depart="313.02" departLane="best" departSpeed="max" from="-23089303#2" to="-23091396#0"/>
    <trip id="veh5" type="veh_passenger" depart="391.28" departLane="best" from="-619506571" to="-23091396#0"/>
    <trip id="veh6" type="veh_passenger" depart="469.54" departLane="best" from="23094442" to="352963640#2"/>
    <trip id="veh7" type="veh_passenger" depart="547.79" departLane="best" departSpeed="max" from="23091395" to="-23089283#3"/>
    <trip id="veh8" type="veh_passenger" depart="626.05" departLane="best" departSpeed="max" from="-619506573#1" to="-23091395"/>
    <trip id="veh9" type="veh_passenger" depart="704.31" departLane="best" departSpeed="max" from="-352963640#6" to="-23089314#1"/>
    <trip id="veh10" type="veh_passenger" depart="782.56" departLane="best" from="23089312#0" to="-23091395"/>
    <trip id="veh11" type="veh_passenger" depart="860.82" departLane="best" departSpeed="max" from="23091396#0" to="-23089283#3"/>
    <trip id="veh12" type="veh_passenger" depart="939.07" departLane="best" departSpeed="max" from="-352963640#6" to="-23089283#2"/>
    <trip id="veh13" type="veh_passenger" depart="1017.33" departLane="best" departSpeed="max" from="-23089303#2" to="-23091396#0"/>
    <trip id="veh14" type="veh_passenger" depart="1095.59" departLane="best" departSpeed="max" from="-352963640#6" to="23089303#2"/>
    <trip id="veh15" type="veh_passenger" depart="1173.84" departLane="best" departSpeed="max" from="-619506572#6" to="352963640#2"/>
    <trip id="veh16" type="veh_passenger" depart="1252.10" departLane="best" departSpeed="max" from="286772940#0" to="-23091395"/>
    <trip id="veh17" type="veh_passenger" depart="1330.36" departLane="best" departSpeed="max" from="-619506573#1" to="-23091396#0"/>
    <trip id="veh18" type="veh_passenger" depart="1408.61" departLane="best" from="23094442" to="352963640#2"/>
    <trip id="veh19" type="veh_passenger" depart="1486.87" departLane="best" departSpeed="max" from="-23089303#2" to="-23091395"/>
    <trip id="veh20" type="veh_passenger" depart="1565.12" departLane="best" departSpeed="max" from="-352963640#6" to="-286772940#2"/>
    <trip id="veh21" type="veh_passenger" depart="1643.38" departLane="best" from="-23089303#1" to="-23091396#0"/>
    <trip id="veh22" type="veh_passenger" depart="1721.64" departLane="best" from="-619506571" to="-23091395"/>
    <trip id="veh23" type="veh_passenger" depart="1799.89" departLane="best" departSpeed="max" from="-195024981" to="352963640#2"/>
    <trip id="veh24" type="veh_passenger" depart="1878.15" departLane="best" departSpeed="max" from="23091396#0" to="23089303#0"/>
    <trip id="veh25" type="veh_passenger" depart="1956.41" departLane="best" departSpeed="max" from="-352963640#6" to="619506572#5"/>
    <trip id="veh26" type="veh_passenger" depart="2034.66" departLane="best" from="286772940#1" to="-23091396#0"/>
    <trip id="veh27" type="veh_passenger" depart="2112.92" departLane="best" departSpeed="max" from="-352963640#6" to="619506572#6"/>
    <trip id="veh28" type="veh_passenger" depart="2191.17" departLane="best" departSpeed="max" from="-195024981" to="-23091395"/>
    <trip id="veh29" type="veh_passenger" depart="2269.43" departLane="best" departSpeed="max" from="23091396#0" to="-23094442"/>
    <trip id="veh30" type="veh_passenger" depart="2347.69" departLane="best" departSpeed="max" from="-352963640#6" to="619506571"/>
    <trip id="veh31" type="veh_passenger" depart="2425.94" departLane="best" departSpeed="max" from="-352963640#6" to="-619506569#4"/>
    <trip id="veh32" type="veh_passenger" depart="2504.20" departLane="best" departSpeed="max" from="-352963640#6" to="23089303#0"/>
    <trip id="veh33" type="veh_passenger" depart="2582.46" departLane="best" departSpeed="max" from="-619506572#6" to="352963640#2"/>
    <trip id="veh34" type="veh_passenger" depart="2660.71" departLane="best" departSpeed="max" from="23091396#0" to="195024981"/>
    <trip id="veh35" type="veh_passenger" depart="2738.97" departLane="best" departSpeed="max" from="23091396#0" to="195024981"/>
    <trip id="veh36" type="veh_passenger" depart="2817.22" departLane="best" departSpeed="max" from="23091395" to="-23089283#3"/>
    <trip id="veh37" type="veh_passenger" depart="2895.48" departLane="best" departSpeed="max" from="23091396#0" to="-352963640#1"/>
    <trip id="veh38" type="veh_passenger" depart="2973.74" departLane="best" departSpeed="max" from="23091396#0" to="619506569#2"/>
    <trip id="veh39" type="veh_passenger" depart="3051.99" departLane="best" departSpeed="max" from="-195024981" to="-23091395"/>
    <trip id="veh40" type="veh_passenger" depart="3130.25" departLane="best" departSpeed="max" from="23089283#0" to="-23091396#0"/>
    <trip id="veh41" type="veh_passenger" depart="3208.51" departLane="best" departSpeed="max" from="23091395" to="-23089303#1"/>
    <trip id="veh42" type="veh_passenger" depart="3286.76" departLane="best" departSpeed="max" from="23091395" to="23089314#0"/>
    <trip id="veh43" type="veh_passenger" depart="3365.02" departLane="best" departSpeed="max" from="-23089303#2" to="352963640#2"/>
    <trip id="veh44" type="veh_passenger" depart="3443.27" departLane="best" departSpeed="max" from="23091396#0" to="619506573#0"/>
    <trip id="veh45" type="veh_passenger" depart="3521.53" departLane="best" from="23094442" to="352963640#2"/>
    <trip id="veh46" type="veh_passenger" depart="3599.79" departLane="best" departSpeed="max" from="286772940#0" to="-23091395"/>
</routes>
