<?xml version="1.0" encoding="UTF-8"?>

<!-- generated on 2024-03-31 14:29:10.343748 by osmWebWizard.py UNKNOWN
<configuration>
    <net-file value="/Users/shripal/Documents/Study/PathFinding/basic_world_net/2024-03-31-14-29-07/osm.net.xml.gz"/>
    <output-trip-file value="/Users/shripal/Documents/Study/PathFinding/basic_world_net/2024-03-31-14-29-07/osm.truck.trips.xml"/>
    <route-file value="/Users/shripal/Documents/Study/PathFinding/basic_world_net/2024-03-31-14-29-07/osm.truck.rou.xml"/>
    <prefix value="truck"/>
    <trip-attributes value="departLane=&quot;best&quot;"/>
    <fringe-start-attributes value="departSpeed=&quot;max&quot;"/>
    <vehicle-class value="truck"/>
    <fringe-factor value="5"/>
    <vclass value="truck"/>
    <via-edge-types value="highway.motorway,highway.motorway_link,highway.trunk_link,highway.primary_link,highway.secondary_link,highway.tertiary_link"/>
    <min-distance value="600.0"/>
    <min-distance.fringe value="10.0"/>
    <remove-loops value="True"/>
    <validate value="True"/>
    <end value="600.0"/>
    <insertion-density value="8.0"/>
</configuration>
-->

<!-- generated on 2024-03-31 14:29:10 by Eclipse SUMO duarouter Version 1.19.0
<configuration xmlns:xsi="http://www.w3.org/2001/XMLSchema-instance" xsi:noNamespaceSchemaLocation="http://sumo.dlr.de/xsd/duarouterConfiguration.xsd">

    <input>
        <net-file value="/Users/shripal/Documents/Study/PathFinding/basic_world_net/2024-03-31-14-29-07/osm.net.xml.gz"/>
        <route-files value="/Users/shripal/Documents/Study/PathFinding/basic_world_net/2024-03-31-14-29-07/osm.truck.trips.xml"/>
    </input>

    <output>
        <output-file value="/Users/shripal/Documents/Study/PathFinding/basic_world_net/2024-03-31-14-29-07/osm.truck.trips.xml.tmp"/>
        <alternatives-output value="NUL"/>
        <write-trips value="true"/>
    </output>

    <processing>
        <remove-loops value="true"/>
    </processing>

    <time>
        <begin value="0.0"/>
        <end value="600.0"/>
    </time>

    <report>
        <no-warnings value="true"/>
        <ignore-errors value="true"/>
        <no-step-log value="true"/>
    </report>

</configuration>
-->

<routes xmlns:xsi="http://www.w3.org/2001/XMLSchema-instance" xsi:noNamespaceSchemaLocation="http://sumo.dlr.de/xsd/routes_file.xsd">
    <vType id="truck_truck" vClass="truck"/>
    <trip id="truck2" type="truck_truck" depart="47.33" departLane="best" from="352963640#7" to="32676854"/>
    <trip id="truck5" type="truck_truck" depart="118.32" departLane="best" from="236099618" to="592399747#1"/>
    <trip id="truck7" type="truck_truck" depart="165.64" departLane="best" from="23089293#1" to="229125595#0"/>
    <trip id="truck10" type="truck_truck" depart="236.63" departLane="best" from="23091402#1" to="605106055#0"/>
    <trip id="truck11" type="truck_truck" depart="260.30" departLane="best" departSpeed="max" from="-23089291#3" to="229125595#0"/>
    <trip id="truck12" type="truck_truck" depart="283.96" departLane="best" departSpeed="max" from="-592399747#1" to="352963640#2"/>
    <trip id="truck13" type="truck_truck" depart="307.63" departLane="best" departSpeed="max" from="-775983561" to="-25092317#0"/>
    <trip id="truck16" type="truck_truck" depart="378.62" departLane="best" departSpeed="max" from="25092354" to="592399747#1"/>
    <trip id="truck17" type="truck_truck" depart="402.28" departLane="best" from="-39597331#3" to="775983557#2"/>
    <trip id="truck19" type="truck_truck" depart="449.61" departLane="best" departSpeed="max" from="25092355" to="592399747#1"/>
    <trip id="truck20" type="truck_truck" depart="473.27" departLane="best" departSpeed="max" from="39597618#0" to="592399747#1"/>
    <trip id="truck22" type="truck_truck" depart="520.60" departLane="best" from="23089293#0" to="229125595#0"/>
</routes>
