<?xml version="1.0" encoding="UTF-8"?>

<!-- generated on 2024-04-04 09:11:37 by Eclipse SUMO netconvert Version 1.19.0
<configuration xmlns:xsi="http://www.w3.org/2001/XMLSchema-instance" xsi:noNamespaceSchemaLocation="http://sumo.dlr.de/xsd/netconvertConfiguration.xsd">

    <input>
        <osm-files value="/Users/shripal/Documents/Study/PathFinding/data/small_map.osm"/>
    </input>

    <output>
        <output-file value="./sumo_network.net.xml"/>
        <plain-output-prefix value="./osm_net"/>
    </output>

    <projection>
        <proj.utm value="true"/>
    </projection>

    <formats>
        <osm.all-attributes value="false"/>
    </formats>

</configuration>
-->

<edges version="1.16" xmlns:xsi="http://www.w3.org/2001/XMLSchema-instance" xsi:noNamespaceSchemaLocation="http://sumo.dlr.de/xsd/edges_file.xsd">
    <location netOffset="-597586.06,-5960986.39" convBoundary="0.00,0.00,282.28,237.82" origBoundary="-1.518663,53.788296,-1.514362,53.790391" projParameter="+proj=utm +zone=30 +ellps=WGS84 +datum=WGS84 +units=m +no_defs"/>

    <edge id="-23089316" from="249205863" to="249205862" priority="3" type="highway.residential" numLanes="1" speed="8.94" disallow="tram rail_urban rail rail_electric rail_fast ship"/>
    <edge id="-23089317" from="249205865" to="249205864" priority="3" type="highway.residential" numLanes="1" speed="8.94" shape="33.00,0.00 36.72,1.16 108.49,61.07" disallow="tram rail_urban rail rail_electric rail_fast ship"/>
    <edge id="-23091395" from="249205864" to="249263695" priority="3" type="highway.residential" numLanes="1" speed="8.94" shape="108.49,61.07 112.99,65.36 176.67,126.27 224.70,173.77 282.28,229.78" disallow="tram rail_urban rail rail_electric rail_fast ship"/>
    <edge id="-23091396" from="1676360522" to="249263697" priority="3" type="highway.residential" numLanes="1" speed="8.94" shape="92.44,77.51 96.02,81.46 106.44,92.94 123.93,110.32 140.22,125.49 159.41,143.97 174.31,159.49 191.28,175.09 207.63,190.19 257.50,237.82" disallow="tram rail_urban rail rail_electric rail_fast ship"/>
    <edge id="-619506572#0" from="249205864" to="249205826" priority="3" type="highway.residential" numLanes="1" speed="8.94" disallow="tram rail_urban rail rail_electric rail_fast ship"/>
    <edge id="-619506572#1" from="1676360522" to="249205864" priority="3" type="highway.residential" numLanes="1" speed="8.94" disallow="tram rail_urban rail rail_electric rail_fast ship"/>
    <edge id="-619506572#2" from="249205862" to="1676360522" priority="3" type="highway.residential" numLanes="1" speed="8.94" disallow="tram rail_urban rail rail_electric rail_fast ship"/>
    <edge id="-619506572#3" from="249205854" to="249205862" priority="3" type="highway.residential" numLanes="1" speed="8.94" shape="0.00,172.18 10.96,160.95 18.13,153.61 25.50,146.06 47.89,123.13 53.11,117.79 66.91,103.65 88.22,81.83" disallow="tram rail_urban rail rail_electric rail_fast ship"/>
    <edge id="23089316" from="249205862" to="249205863" priority="3" type="highway.residential" numLanes="1" speed="8.94" disallow="tram rail_urban rail rail_electric rail_fast ship"/>
    <edge id="23089317" from="249205864" to="249205865" priority="3" type="highway.residential" numLanes="1" speed="8.94" shape="108.49,61.07 36.72,1.16 33.00,0.00" disallow="tram rail_urban rail rail_electric rail_fast ship"/>
    <edge id="23091395" from="249263695" to="249205864" priority="3" type="highway.residential" numLanes="1" speed="8.94" shape="282.28,229.78 224.70,173.77 176.67,126.27 112.99,65.36 108.49,61.07" disallow="tram rail_urban rail rail_electric rail_fast ship"/>
    <edge id="23091396" from="249263697" to="1676360522" priority="3" type="highway.residential" numLanes="1" speed="8.94" shape="257.50,237.82 207.63,190.19 191.28,175.09 174.31,159.49 159.41,143.97 140.22,125.49 123.93,110.32 106.44,92.94 96.02,81.46 92.44,77.51" disallow="tram rail_urban rail rail_electric rail_fast ship"/>
    <edge id="619506572#0" from="249205826" to="249205864" priority="3" type="highway.residential" numLanes="1" speed="8.94" disallow="tram rail_urban rail rail_electric rail_fast ship"/>
    <edge id="619506572#1" from="249205864" to="1676360522" priority="3" type="highway.residential" numLanes="1" speed="8.94" disallow="tram rail_urban rail rail_electric rail_fast ship"/>
    <edge id="619506572#2" from="1676360522" to="249205862" priority="3" type="highway.residential" numLanes="1" speed="8.94" disallow="tram rail_urban rail rail_electric rail_fast ship"/>
    <edge id="619506572#3" from="249205862" to="249205854" priority="3" type="highway.residential" numLanes="1" speed="8.94" shape="88.22,81.83 66.91,103.65 53.11,117.79 47.89,123.13 25.50,146.06 18.13,153.61 10.96,160.95 0.00,172.18" disallow="tram rail_urban rail rail_electric rail_fast ship"/>
</edges>
