<?xml version="1.0" encoding="UTF-8"?>

<!-- generated on 2024-04-04 09:11:37 by Eclipse SUMO netconvert Version 1.19.0
<configuration xmlns:xsi="http://www.w3.org/2001/XMLSchema-instance" xsi:noNamespaceSchemaLocation="http://sumo.dlr.de/xsd/netconvertConfiguration.xsd">

    <input>
        <osm-files value="/Users/shripal/Documents/Study/PathFinding/data/small_map.osm"/>
    </input>

    <output>
        <output-file value="./sumo_network.net.xml"/>
        <plain-output-prefix value="./osm_net"/>
    </output>

    <projection>
        <proj.utm value="true"/>
    </projection>

    <formats>
        <osm.all-attributes value="false"/>
    </formats>

</configuration>
-->

<nodes version="1.16" xmlns:xsi="http://www.w3.org/2001/XMLSchema-instance" xsi:noNamespaceSchemaLocation="http://sumo.dlr.de/xsd/nodes_file.xsd">
    <location netOffset="-597586.06,-5960986.39" convBoundary="0.00,0.00,282.28,237.82" origBoundary="-1.518663,53.788296,-1.514362,53.790391" projParameter="+proj=utm +zone=30 +ellps=WGS84 +datum=WGS84 +units=m +no_defs"/>

    <node id="1676360522" x="92.44" y="77.51" type="right_before_left"/>
    <node id="249205826" x="130.30" y="38.74" type="priority"/>
    <node id="249205854" x="0.00" y="172.18" type="priority"/>
    <node id="249205862" x="88.22" y="81.83" type="right_before_left"/>
    <node id="249205863" x="10.25" y="16.19" type="priority"/>
    <node id="249205864" x="108.49" y="61.07" type="right_before_left"/>
    <node id="249205865" x="33.00" y="0.00" type="priority"/>
    <node id="249263695" x="282.28" y="229.78" type="priority"/>
    <node id="249263697" x="257.50" y="237.82" type="priority"/>
</nodes>
