<?xml version="1.0" encoding="UTF-8"?>

<!-- generated on 2024-04-04 09:11:37 by Eclipse SUMO netconvert Version 1.19.0
<configuration xmlns:xsi="http://www.w3.org/2001/XMLSchema-instance" xsi:noNamespaceSchemaLocation="http://sumo.dlr.de/xsd/netconvertConfiguration.xsd">

    <input>
        <osm-files value="/Users/shripal/Documents/Study/PathFinding/data/small_map.osm"/>
    </input>

    <output>
        <output-file value="./sumo_network.net.xml"/>
        <plain-output-prefix value="./osm_net"/>
    </output>

    <projection>
        <proj.utm value="true"/>
    </projection>

    <formats>
        <osm.all-attributes value="false"/>
    </formats>

</configuration>
-->

<connections version="1.16" xmlns:xsi="http://www.w3.org/2001/XMLSchema-instance" xsi:noNamespaceSchemaLocation="http://sumo.dlr.de/xsd/connections_file.xsd">
    <connection from="-23089316" to="-619506572#2" fromLane="0" toLane="0"/>
    <connection from="-23089316" to="619506572#3" fromLane="0" toLane="0"/>
    <connection from="-23089316" to="23089316" fromLane="0" toLane="0"/>

    <connection from="-23089317" to="-619506572#0" fromLane="0" toLane="0"/>
    <connection from="-23089317" to="-23091395" fromLane="0" toLane="0"/>
    <connection from="-23089317" to="619506572#1" fromLane="0" toLane="0"/>
    <connection from="-23089317" to="23089317" fromLane="0" toLane="0"/>

    <connection from="-23091395" to="23091395" fromLane="0" toLane="0"/>

    <connection from="-23091396" to="23091396" fromLane="0" toLane="0"/>

    <connection from="-619506572#0" to="619506572#0" fromLane="0" toLane="0"/>

    <connection from="-619506572#1" to="23089317" fromLane="0" toLane="0"/>
    <connection from="-619506572#1" to="-619506572#0" fromLane="0" toLane="0"/>
    <connection from="-619506572#1" to="-23091395" fromLane="0" toLane="0"/>
    <connection from="-619506572#1" to="619506572#1" fromLane="0" toLane="0"/>

    <connection from="-619506572#2" to="-619506572#1" fromLane="0" toLane="0"/>
    <connection from="-619506572#2" to="-23091396" fromLane="0" toLane="0"/>
    <connection from="-619506572#2" to="619506572#2" fromLane="0" toLane="0"/>

    <connection from="-619506572#3" to="23089316" fromLane="0" toLane="0"/>
    <connection from="-619506572#3" to="-619506572#2" fromLane="0" toLane="0"/>
    <connection from="-619506572#3" to="619506572#3" fromLane="0" toLane="0"/>

    <connection from="23089316" to="-23089316" fromLane="0" toLane="0"/>

    <connection from="23089317" to="-23089317" fromLane="0" toLane="0"/>

    <connection from="23091395" to="619506572#1" fromLane="0" toLane="0"/>
    <connection from="23091395" to="23089317" fromLane="0" toLane="0"/>
    <connection from="23091395" to="-619506572#0" fromLane="0" toLane="0"/>
    <connection from="23091395" to="-23091395" fromLane="0" toLane="0"/>

    <connection from="23091396" to="619506572#2" fromLane="0" toLane="0"/>
    <connection from="23091396" to="-619506572#1" fromLane="0" toLane="0"/>
    <connection from="23091396" to="-23091396" fromLane="0" toLane="0"/>

    <connection from="619506572#0" to="-23091395" fromLane="0" toLane="0"/>
    <connection from="619506572#0" to="619506572#1" fromLane="0" toLane="0"/>
    <connection from="619506572#0" to="23089317" fromLane="0" toLane="0"/>
    <connection from="619506572#0" to="-619506572#0" fromLane="0" toLane="0"/>

    <connection from="619506572#1" to="-23091396" fromLane="0" toLane="0"/>
    <connection from="619506572#1" to="619506572#2" fromLane="0" toLane="0"/>
    <connection from="619506572#1" to="-619506572#1" fromLane="0" toLane="0"/>

    <connection from="619506572#2" to="619506572#3" fromLane="0" toLane="0"/>
    <connection from="619506572#2" to="23089316" fromLane="0" toLane="0"/>
    <connection from="619506572#2" to="-619506572#2" fromLane="0" toLane="0"/>

    <connection from="619506572#3" to="-619506572#3" fromLane="0" toLane="0"/>

</connections>
