<?xml version="1.0" encoding="UTF-8"?>

<!-- generated on 2024-04-04 09:11:37 by Eclipse SUMO netconvert Version 1.19.0
<configuration xmlns:xsi="http://www.w3.org/2001/XMLSchema-instance" xsi:noNamespaceSchemaLocation="http://sumo.dlr.de/xsd/netconvertConfiguration.xsd">

    <input>
        <osm-files value="/Users/shripal/Documents/Study/PathFinding/data/small_map.osm"/>
    </input>

    <output>
        <output-file value="./sumo_network.net.xml"/>
        <plain-output-prefix value="./osm_net"/>
    </output>

    <projection>
        <proj.utm value="true"/>
    </projection>

    <formats>
        <osm.all-attributes value="false"/>
    </formats>

</configuration>
-->

<tlLogics version="1.16" xmlns:xsi="http://www.w3.org/2001/XMLSchema-instance" xsi:noNamespaceSchemaLocation="http://sumo.dlr.de/xsd/tllogic_file.xsd">
</tlLogics>
