<?xml version="1.0" encoding="UTF-8"?>

<!-- generated on 2024-03-28 05:16:44 by Eclipse SUMO netconvert Version 1.19.0
<configuration xmlns:xsi="http://www.w3.org/2001/XMLSchema-instance" xsi:noNamespaceSchemaLocation="http://sumo.dlr.de/xsd/netconvertConfiguration.xsd">

    <input>
        <node-files value="/Users/shripal/Documents/Study/PathFinding/small_world//worlds/small_world_net/sumo.nod.xml"/>
        <edge-files value="/Users/shripal/Documents/Study/PathFinding/small_world//worlds/small_world_net/sumo.edg.xml"/>
    </input>

    <output>
        <output-file value="/Users/shripal/Documents/Study/PathFinding/small_world//worlds/small_world_net/sumo.net.xml"/>
    </output>

</configuration>
-->


<net version="1.16" junctionCornerDetail="5" limitTurnSpeed="5.50" xmlns:xsi="http://www.w3.org/2001/XMLSchema-instance" xsi:noNamespaceSchemaLocation="http://sumo.dlr.de/xsd/net_file.xsd">
    <location netOffset="104.32,70.01" convBoundary="0.00,0.00,285.11,239.73" origBoundary="-104.32,-70.01,180.79,169.72" projParameter="!"/>

    <edge id=":249205864_0" function="internal">
        <lane id=":249205864_0_0" index="0" speed="5.74" length="6.47" width="4.00" shape="112.81,65.74 111.37,64.72 109.94,64.39 108.53,64.77 107.12,65.85"/>
    </edge>
    <edge id=":249205864_1" function="internal">
        <lane id=":249205864_1_0" index="0" speed="13.89" length="8.00" width="4.00" shape="112.81,65.74 106.85,60.42"/>
    </edge>
    <edge id=":249205864_2" function="internal">
        <lane id=":249205864_2_0" index="0" speed="13.89" length="8.00" width="4.00" shape="112.71,60.12 107.12,65.85"/>
    </edge>
    <edge id=":249205864_3" function="internal">
        <lane id=":249205864_3_0" index="0" speed="5.91" length="2.00" width="4.00" shape="112.71,60.12 111.30,61.21 111.09,61.27"/>
    </edge>
    <edge id=":249205864_4" function="internal">
        <lane id=":249205864_4_0" index="0" speed="5.91" length="4.58" width="4.00" shape="111.09,61.27 109.85,61.63 108.37,61.36 106.85,60.42"/>
    </edge>

    <edge id="23089316" from="249205862" to="Custom3" priority="-1" shape="87.88,79.63 12.97,16.57">
        <lane id="23089316_0" index="0" speed="13.89" length="97.92" width="4.00" shape="86.60,81.16 11.69,18.10"/>
    </edge>
    <edge id="23089317" from="249205864" to="Custom4" priority="-1" shape="108.13,58.88 39.44,1.53 39.28,1.41 39.11,1.31 38.93,1.23 38.75,1.16 35.02,0.00">
        <lane id="23089317_0" index="0" speed="13.89" length="93.39" width="4.00" shape="106.85,60.42 38.11,3.05 34.43,1.91"/>
    </edge>
    <edge id="23091395" from="Custom5" to="249205864" priority="-1" shape="285.11,230.25 227.53,174.25 179.51,126.76 115.80,65.83 114.19,64.30">
        <lane id="23091395_0" index="0" speed="13.89" length="238.22" width="4.00" shape="283.71,231.69 226.13,175.68 178.12,128.19 114.42,67.27 112.81,65.74"/>
    </edge>
    <edge id="23091396" from="Custom6" to="1676360522" priority="-1" shape="260.31,238.28 210.45,190.65 194.07,175.53 177.14,159.97 162.28,144.50 143.04,125.96 126.75,110.79 109.32,93.47 98.93,82.02 98.04,81.04">
        <lane id="23091396_0" index="0" speed="13.89" length="226.17" width="4.00" shape="258.93,239.73 209.08,192.11 192.71,177.00 175.74,161.40 160.86,145.91 141.66,127.41 125.36,112.23 107.87,94.85 97.45,83.37 96.56,82.38"/>
    </edge>
    <edge id="619506572_1" from="Custom8" to="249205864" priority="-1" shape="130.30,39.25 111.28,58.72">
        <lane id="619506572_1_0" index="0" speed="13.89" length="27.22" width="4.00" shape="131.73,40.65 112.71,60.12"/>
    </edge>
    <edge id="619506572_2" from="249205862" to="Custom7" priority="-1" shape="85.43,85.20 66.91,104.17 53.11,118.30 47.89,123.65 25.50,146.57 18.14,154.12 10.96,161.46 0.00,172.70">
        <lane id="619506572_2_0" index="0" speed="13.89" length="122.28" width="4.00" shape="86.86,86.60 68.34,105.56 54.54,119.70 49.32,125.04 26.93,147.97 19.57,155.52 12.40,162.86 1.43,174.09"/>
    </edge>
    <edge id="619506572_3" from="249205864" to="1676360522" priority="-1" shape="105.69,64.45 95.23,75.16">
        <lane id="619506572_3_0" index="0" speed="13.89" length="14.97" width="4.00" shape="107.12,65.85 96.67,76.56"/>
    </edge>

    <junction id="1676360522" type="dead_end" x="93.87" y="79.42" incLanes="23091396_0 619506572_3_0" intLanes="" shape="95.23,75.16 98.10,77.96 98.04,81.04 95.08,83.73 92.51,83.68 89.65,80.89" customShape="1"/>
    <junction id="249205862" type="dead_end" x="89.66" y="83.74" incLanes="" intLanes="" shape="91.02,79.48 93.88,82.27 88.29,88.00 85.43,85.20 85.31,82.69 87.88,79.63" customShape="1"/>
    <junction id="249205864" type="priority" x="109.92" y="62.98" incLanes="23091395_0 619506572_1_0" intLanes=":249205864_0_0 :249205864_1_0 :249205864_2_0 :249205864_4_0" shape="111.28,58.72 114.14,61.52 114.19,64.30 111.43,67.19 108.56,67.24 105.69,64.45 105.57,61.96 108.13,58.88" customShape="1">
        <request index="0" response="0000" foes="0100" cont="0"/>
        <request index="1" response="0000" foes="1100" cont="0"/>
        <request index="2" response="0011" foes="0011" cont="0"/>
        <request index="3" response="0010" foes="0010" cont="1"/>
    </junction>
    <junction id="Custom3" type="dead_end" x="11.69" y="18.10" incLanes="23089316_0" intLanes="" shape="10.40,19.63 12.97,16.57"/>
    <junction id="Custom4" type="dead_end" x="34.43" y="1.91" incLanes="23089317_0" intLanes="" shape="33.84,3.82 35.02,0.00"/>
    <junction id="Custom5" type="dead_end" x="283.71" y="231.69" incLanes="" intLanes="" shape="285.11,230.25 282.32,233.12"/>
    <junction id="Custom6" type="dead_end" x="258.93" y="239.73" incLanes="" intLanes="" shape="260.31,238.28 257.55,241.17"/>
    <junction id="Custom7" type="dead_end" x="1.43" y="174.09" incLanes="619506572_2_0" intLanes="" shape="2.86,175.49 -0.00,172.70"/>
    <junction id="Custom8" type="dead_end" x="131.73" y="40.65" incLanes="" intLanes="" shape="130.30,39.25 133.16,42.04"/>

    <junction id=":249205864_4_0" type="internal" x="111.09" y="61.27" incLanes=":249205864_3_0 23091395_0" intLanes=":249205864_1_0"/>

    <connection from="23091395" to="619506572_3" fromLane="0" toLane="0" via=":249205864_0_0" dir="r" state="M"/>
    <connection from="23091395" to="23089317" fromLane="0" toLane="0" via=":249205864_1_0" dir="s" state="M"/>
    <connection from="619506572_1" to="619506572_3" fromLane="0" toLane="0" via=":249205864_2_0" dir="s" state="m"/>
    <connection from="619506572_1" to="23089317" fromLane="0" toLane="0" via=":249205864_3_0" dir="l" state="m"/>

    <connection from=":249205864_0" to="619506572_3" fromLane="0" toLane="0" dir="r" state="M"/>
    <connection from=":249205864_1" to="23089317" fromLane="0" toLane="0" dir="s" state="M"/>
    <connection from=":249205864_2" to="619506572_3" fromLane="0" toLane="0" dir="s" state="M"/>
    <connection from=":249205864_3" to="23089317" fromLane="0" toLane="0" via=":249205864_4_0" dir="l" state="m"/>
    <connection from=":249205864_4" to="23089317" fromLane="0" toLane="0" dir="l" state="M"/>

</net>
