<?xml version="1.0" encoding="UTF-8"?>

<!-- generated on 2024-04-04 12:20:02.027117 by osmWebWizard.py UNKNOWN
<configuration>
    <net-file value="/Users/shripal/Documents/Study/PathFinding/osm_sumo_final/2024-04-04-12-19-58/osm.net.xml.gz"/>
    <output-trip-file value="/Users/shripal/Documents/Study/PathFinding/osm_sumo_final/2024-04-04-12-19-58/osm.passenger.trips.xml"/>
    <route-file value="/Users/shripal/Documents/Study/PathFinding/osm_sumo_final/2024-04-04-12-19-58/osm.passenger.rou.xml"/>
    <prefix value="veh"/>
    <trip-attributes value="departLane=&quot;best&quot;"/>
    <fringe-start-attributes value="departSpeed=&quot;max&quot;"/>
    <vehicle-class value="passenger"/>
    <lanes value="True"/>
    <fringe-factor value="5"/>
    <allow-fringe.min-length value="1000.0"/>
    <via-edge-types value="highway.motorway,highway.motorway_link,highway.trunk_link,highway.primary_link,highway.secondary_link,highway.tertiary_link"/>
    <min-distance value="300.0"/>
    <min-distance.fringe value="10.0"/>
    <remove-loops value="True"/>
    <validate value="True"/>
    <end value="720.0"/>
    <insertion-density value="12.0"/>
</configuration>
-->

<!-- generated on 2024-04-04 12:20:02 by Eclipse SUMO duarouter Version 1.19.0
<configuration xmlns:xsi="http://www.w3.org/2001/XMLSchema-instance" xsi:noNamespaceSchemaLocation="http://sumo.dlr.de/xsd/duarouterConfiguration.xsd">

    <input>
        <net-file value="/Users/shripal/Documents/Study/PathFinding/osm_sumo_final/2024-04-04-12-19-58/osm.net.xml.gz"/>
        <route-files value="/Users/shripal/Documents/Study/PathFinding/osm_sumo_final/2024-04-04-12-19-58/osm.passenger.trips.xml"/>
    </input>

    <output>
        <output-file value="/Users/shripal/Documents/Study/PathFinding/osm_sumo_final/2024-04-04-12-19-58/osm.passenger.trips.xml.tmp"/>
        <alternatives-output value="NUL"/>
        <write-trips value="true"/>
    </output>

    <processing>
        <remove-loops value="true"/>
    </processing>

    <time>
        <begin value="0.0"/>
        <end value="720.0"/>
    </time>

    <report>
        <no-warnings value="true"/>
        <ignore-errors value="true"/>
        <no-step-log value="true"/>
    </report>

</configuration>
-->

<routes xmlns:xsi="http://www.w3.org/2001/XMLSchema-instance" xsi:noNamespaceSchemaLocation="http://sumo.dlr.de/xsd/routes_file.xsd">
    <vType id="veh_passenger" vClass="passenger"/>
    <trip id="veh0" type="veh_passenger" depart="0.00" departLane="best" from="23089316" to="-195024986"/>
    <trip id="veh1" type="veh_passenger" depart="15.47" departLane="best" departSpeed="max" from="-25092322#1" to="-286772940#0"/>
    <trip id="veh2" type="veh_passenger" depart="30.95" departLane="best" departSpeed="max" from="-707094864#2" to="-195024986"/>
    <trip id="veh3" type="veh_passenger" depart="46.42" departLane="best" departSpeed="max" from="-195024987#1" to="-25092317#6"/>
    <trip id="veh4" type="veh_passenger" depart="61.89" departLane="best" departSpeed="max" from="39597618#0" to="195024975"/>
    <trip id="veh7" type="veh_passenger" depart="108.31" departLane="best" departSpeed="max" from="39597618#0" to="315389126#0"/>
    <trip id="veh8" type="veh_passenger" depart="123.79" departLane="best" departSpeed="max" from="195024986" to="775983557#0"/>
    <trip id="veh11" type="veh_passenger" depart="170.20" departLane="best" from="-23091396#5" to="-23089284#0"/>
    <trip id="veh12" type="veh_passenger" depart="185.68" departLane="best" departSpeed="max" from="-23091401" to="1101640886"/>
    <trip id="veh13" type="veh_passenger" depart="201.15" departLane="best" departSpeed="max" from="-23089292#2" to="-352963640#6"/>
    <trip id="veh14" type="veh_passenger" depart="216.62" departLane="best" departSpeed="max" from="-592399747" to="-25092354"/>
    <trip id="veh15" type="veh_passenger" depart="232.10" departLane="best" departSpeed="max" from="-25092321#2" to="659857510"/>
    <trip id="veh17" type="veh_passenger" depart="263.04" departLane="best" from="-23091391#5" to="315389126#0"/>
    <trip id="veh21" type="veh_passenger" depart="324.94" departLane="best" from="-23091396#6" to="660911424#0"/>
    <trip id="veh22" type="veh_passenger" depart="340.41" departLane="best" from="23091391#4" to="229125595#0"/>
    <trip id="veh24" type="veh_passenger" depart="371.36" departLane="best" departSpeed="max" from="969773708" to="23089307#1"/>
    <trip id="veh25" type="veh_passenger" depart="386.83" departLane="best" departSpeed="max" from="-23089299" to="-25092317#1"/>
    <trip id="veh28" type="veh_passenger" depart="433.25" departLane="best" from="493043943#0" to="619506572#5"/>
    <trip id="veh31" type="veh_passenger" depart="479.67" departLane="best" departSpeed="max" from="23089298" to="-23091396#0"/>
    <trip id="veh32" type="veh_passenger" depart="495.14" departLane="best" from="1076168251" to="149576543#0"/>
    <trip id="veh33" type="veh_passenger" depart="510.61" departLane="best" departSpeed="max" from="-195024977" to="659857510"/>
    <trip id="veh35" type="veh_passenger" depart="541.56" departLane="best" departSpeed="max" from="-25092358" to="-23089291#1"/>
    <trip id="veh39" type="veh_passenger" depart="603.45" departLane="best" departSpeed="max" from="-707094864#2" to="-25092355"/>
    <trip id="veh40" type="veh_passenger" depart="618.93" departLane="best" from="229124863" to="315389126#0"/>
    <trip id="veh41" type="veh_passenger" depart="634.40" departLane="best" from="-23091395#2" to="1149003850#0"/>
    <trip id="veh42" type="veh_passenger" depart="649.87" departLane="best" departSpeed="max" from="969773708" to="25092322#0"/>
    <trip id="veh43" type="veh_passenger" depart="665.35" departLane="best" departSpeed="max" from="-23089291#4" to="-25092317#3"/>
    <trip id="veh46" type="veh_passenger" depart="711.77" departLane="best" from="23094298#3" to="25092356"/>
</routes>
