<?xml version="1.0" encoding="UTF-8"?>

<!-- generated on 2024-03-31 14:36:04 by Eclipse SUMO netconvert Version 1.19.0
<configuration xmlns:xsi="http://www.w3.org/2001/XMLSchema-instance" xsi:noNamespaceSchemaLocation="http://sumo.dlr.de/xsd/netconvertConfiguration.xsd">

    <input>
        <type-files value="${SUMO_HOME}/data/typemap/osmNetconvert.typ.xml"/>
        <osm-files value="osm_bbox.osm.xml.gz"/>
    </input>

    <output>
        <output-file value="osm.net.xml.gz"/>
        <output.street-names value="true"/>
        <output.original-names value="true"/>
    </output>

    <projection>
        <proj.utm value="true"/>
    </projection>

    <processing>
        <geometry.remove value="true"/>
        <roundabouts.guess value="true"/>
    </processing>

    <tls_building>
        <tls.discard-simple value="true"/>
        <tls.join value="true"/>
        <tls.guess-signals value="true"/>
        <tls.default-type value="actuated"/>
    </tls_building>

    <ramp_guessing>
        <ramps.guess value="true"/>
    </ramp_guessing>

    <edge_removal>
        <keep-edges.by-vclass value="passenger"/>
    </edge_removal>

    <junctions>
        <junctions.join value="true"/>
        <junctions.corner-detail value="5"/>
    </junctions>

</configuration>
-->

<net version="1.16" junctionCornerDetail="5" limitTurnSpeed="5.50" xmlns:xsi="http://www.w3.org/2001/XMLSchema-instance" xsi:noNamespaceSchemaLocation="http://sumo.dlr.de/xsd/net_file.xsd">

    <location netOffset="-597343.72,-5960938.69" convBoundary="0.00,0.00,572.74,293.05" origBoundary="-1.522371,53.787674,-1.513627,53.790493" projParameter="+proj=utm +zone=30 +ellps=WGS84 +datum=WGS84 +units=m +no_defs"/>

    <type id="highway.living_street" priority="2" numLanes="1" speed="2.78" disallow="tram rail_urban rail rail_electric rail_fast ship" oneway="0"/>
    <type id="highway.residential" priority="3" numLanes="1" speed="13.89" disallow="tram rail_urban rail rail_electric rail_fast ship" oneway="0"/>
    <type id="highway.tertiary" priority="10" numLanes="1" speed="22.22" disallow="tram rail_urban rail rail_electric rail_fast ship" oneway="0"/>
    <type id="highway.unclassified" priority="4" numLanes="1" speed="13.89" disallow="tram rail_urban rail rail_electric rail_fast ship" oneway="0"/>

    <edge id=":1640611933_0" function="internal">
        <lane id=":1640611933_0_0" index="0" disallow="tram rail_urban rail rail_electric rail_fast ship" speed="3.65" length="4.67" shape="-1.01,124.44 -1.44,123.06 -1.24,122.19 -0.42,121.82 1.01,121.96"/>
    </edge>
    <edge id=":2055250784_0" function="internal">
        <lane id=":2055250784_0_0" index="0" disallow="tram rail_urban rail rail_electric rail_fast ship" speed="3.65" length="4.67" shape="266.69,0.71 266.88,-0.72 267.41,-1.43 268.31,-1.43 269.56,-0.71"/>
    </edge>
    <edge id=":2055250787_0" function="internal">
        <lane id=":2055250787_0_0" index="0" disallow="tram rail_urban rail rail_electric rail_fast ship" speed="8.94" length="14.40" shape="281.89,34.42 267.49,33.96"/>
    </edge>
    <edge id=":2055250787_1" function="internal">
        <lane id=":2055250787_1_0" index="0" disallow="tram rail_urban rail rail_electric rail_fast ship" speed="8.07" length="4.03" shape="281.89,34.42 278.09,33.75 277.94,33.65"/>
    </edge>
    <edge id=":2055250787_2" function="internal">
        <lane id=":2055250787_2_0" index="0" disallow="tram rail_urban rail rail_electric rail_fast ship" speed="3.65" length="1.44" shape="281.89,34.42 280.71,33.58"/>
    </edge>
    <edge id=":2055250787_9" function="internal">
        <lane id=":2055250787_9_0" index="0" disallow="tram rail_urban rail rail_electric rail_fast ship" speed="8.07" length="10.19" shape="277.94,33.65 275.39,32.00 273.79,29.19 273.29,25.31"/>
    </edge>
    <edge id=":2055250787_10" function="internal">
        <lane id=":2055250787_10_0" index="0" disallow="tram rail_urban rail rail_electric rail_fast ship" speed="3.65" length="3.23" shape="280.71,33.58 280.34,32.77 280.76,31.98 281.99,31.22"/>
    </edge>
    <edge id=":2055250787_3" function="internal">
        <lane id=":2055250787_3_0" index="0" disallow="tram rail_urban rail rail_electric rail_fast ship" speed="6.59" length="9.14" shape="276.49,25.34 276.81,27.85 277.83,29.66 279.56,30.79 281.99,31.22"/>
    </edge>
    <edge id=":2055250787_4" function="internal">
        <lane id=":2055250787_4_0" index="0" disallow="tram rail_urban rail rail_electric rail_fast ship" speed="7.96" length="14.27" shape="276.49,25.34 275.89,29.22 274.19,31.95 271.39,33.53 267.49,33.96"/>
    </edge>
    <edge id=":2055250787_5" function="internal">
        <lane id=":2055250787_5_0" index="0" disallow="tram rail_urban rail rail_electric rail_fast ship" speed="3.65" length="4.67" shape="276.49,25.34 275.67,26.53 274.87,26.93 274.07,26.52 273.29,25.31"/>
    </edge>
    <edge id=":2055250787_6" function="internal">
        <lane id=":2055250787_6_0" index="0" disallow="tram rail_urban rail rail_electric rail_fast ship" speed="6.46" length="9.03" shape="267.59,30.76 270.06,30.49 271.83,29.49 272.91,27.76 273.29,25.31"/>
    </edge>
    <edge id=":2055250787_7" function="internal">
        <lane id=":2055250787_7_0" index="0" disallow="tram rail_urban rail rail_electric rail_fast ship" speed="8.94" length="14.40" shape="267.59,30.76 281.99,31.22"/>
    </edge>
    <edge id=":2055250787_8" function="internal">
        <lane id=":2055250787_8_0" index="0" disallow="tram rail_urban rail rail_electric rail_fast ship" speed="3.65" length="1.44" shape="267.59,30.76 268.77,31.60"/>
    </edge>
    <edge id=":2055250787_11" function="internal">
        <lane id=":2055250787_11_0" index="0" disallow="tram rail_urban rail rail_electric rail_fast ship" speed="3.65" length="3.23" shape="268.77,31.60 269.14,32.41 268.72,33.20 267.49,33.96"/>
    </edge>
    <edge id=":249205823_0" function="internal">
        <lane id=":249205823_0_0" index="0" disallow="tram rail_urban rail rail_electric rail_fast ship" speed="8.54" length="11.59" shape="117.45,43.03 115.65,39.90 113.64,37.71 111.42,36.46 108.98,36.15"/>
    </edge>
    <edge id=":249205823_1" function="internal">
        <lane id=":249205823_1_0" index="0" disallow="tram rail_urban rail rail_electric rail_fast ship" speed="7.46" length="16.15" shape="117.45,43.03 116.05,38.52 116.69,35.27 119.37,33.29 124.09,32.57"/>
    </edge>
    <edge id=":249205823_2" function="internal">
        <lane id=":249205823_2_0" index="0" disallow="tram rail_urban rail rail_electric rail_fast ship" speed="3.65" length="4.67" shape="117.45,43.03 117.67,41.61 118.22,40.91 119.11,40.93 120.35,41.67"/>
    </edge>
    <edge id=":249205823_3" function="internal">
        <lane id=":249205823_3_0" index="0" disallow="tram rail_urban rail rail_electric rail_fast ship" speed="5.76" length="9.17" shape="124.09,35.77 121.41,36.14 119.89,37.24 119.54,39.09 120.35,41.67"/>
    </edge>
    <edge id=":249205823_4" function="internal">
        <lane id=":249205823_4_0" index="0" disallow="tram rail_urban rail rail_electric rail_fast ship" speed="8.94" length="15.11" shape="124.09,35.77 108.98,36.15"/>
    </edge>
    <edge id=":249205823_5" function="internal">
        <lane id=":249205823_5_0" index="0" disallow="tram rail_urban rail rail_electric rail_fast ship" speed="3.66" length="1.44" shape="124.09,35.77 122.89,34.97"/>
    </edge>
    <edge id=":249205823_9" function="internal">
        <lane id=":249205823_9_0" index="0" disallow="tram rail_urban rail rail_electric rail_fast ship" speed="3.66" length="3.23" shape="122.89,34.97 122.49,34.17 122.89,33.37 124.09,32.57"/>
    </edge>
    <edge id=":249205823_6" function="internal">
        <lane id=":249205823_6_0" index="0" disallow="tram rail_urban rail rail_electric rail_fast ship" speed="8.94" length="15.31" shape="108.79,32.95 124.09,32.57"/>
    </edge>
    <edge id=":249205823_7" function="internal">
        <lane id=":249205823_7_0" index="0" disallow="tram rail_urban rail rail_electric rail_fast ship" speed="8.94" length="3.85" shape="108.79,32.95 112.22,33.33 112.57,33.51"/>
    </edge>
    <edge id=":249205823_8" function="internal">
        <lane id=":249205823_8_0" index="0" disallow="tram rail_urban rail rail_electric rail_fast ship" speed="3.65" length="1.44" shape="108.79,32.95 110.03,33.68"/>
    </edge>
    <edge id=":249205823_10" function="internal">
        <lane id=":249205823_10_0" index="0" disallow="tram rail_urban rail rail_electric rail_fast ship" speed="8.94" length="11.57" shape="112.57,33.51 115.30,34.91 118.01,37.69 120.35,41.67"/>
    </edge>
    <edge id=":249205823_11" function="internal">
        <lane id=":249205823_11_0" index="0" disallow="tram rail_urban rail rail_electric rail_fast ship" speed="3.65" length="3.23" shape="110.03,33.68 110.48,34.45 110.13,35.27 108.98,36.15"/>
    </edge>
    <edge id=":249205826_0" function="internal">
        <lane id=":249205826_0_0" index="0" disallow="tram rail_urban rail rail_electric rail_fast ship" speed="6.66" length="9.28" shape="376.80,92.42 374.76,91.04 372.71,90.66 370.67,91.26 368.62,92.86"/>
    </edge>
    <edge id=":249205826_1" function="internal">
        <lane id=":249205826_1_0" index="0" disallow="tram rail_urban rail rail_electric rail_fast ship" speed="8.94" length="14.46" shape="376.80,92.42 365.99,82.82"/>
    </edge>
    <edge id=":249205826_2" function="internal">
        <lane id=":249205826_2_0" index="0" disallow="tram rail_urban rail rail_electric rail_fast ship" speed="3.65" length="1.44" shape="376.80,92.42 376.46,91.02"/>
    </edge>
    <edge id=":249205826_9" function="internal">
        <lane id=":249205826_9_0" index="0" disallow="tram rail_urban rail rail_electric rail_fast ship" speed="3.65" length="3.23" shape="376.46,91.02 376.70,90.16 377.54,89.84 378.96,90.07"/>
    </edge>
    <edge id=":249205826_3" function="internal">
        <lane id=":249205826_3_0" index="0" disallow="tram rail_urban rail rail_electric rail_fast ship" speed="8.94" length="14.56" shape="368.08,80.40 378.96,90.07"/>
    </edge>
    <edge id=":249205826_4" function="internal">
        <lane id=":249205826_4_0" index="0" disallow="tram rail_urban rail rail_electric rail_fast ship" speed="7.89" length="4.23" shape="368.08,80.40 370.70,83.41 370.77,83.64"/>
    </edge>
    <edge id=":249205826_5" function="internal">
        <lane id=":249205826_5_0" index="0" disallow="tram rail_urban rail rail_electric rail_fast ship" speed="3.65" length="1.44" shape="368.08,80.40 368.47,81.79"/>
    </edge>
    <edge id=":249205826_10" function="internal">
        <lane id=":249205826_10_0" index="0" disallow="tram rail_urban rail rail_electric rail_fast ship" speed="7.89" length="10.20" shape="370.77,83.64 371.67,86.49 370.97,89.64 368.62,92.86"/>
    </edge>
    <edge id=":249205826_11" function="internal">
        <lane id=":249205826_11_0" index="0" disallow="tram rail_urban rail rail_electric rail_fast ship" speed="3.65" length="3.23" shape="368.47,81.79 368.25,82.65 367.43,83.00 365.99,82.82"/>
    </edge>
    <edge id=":249205826_6" function="internal">
        <lane id=":249205826_6_0" index="0" disallow="tram rail_urban rail rail_electric rail_fast ship" speed="6.38" length="9.04" shape="366.33,90.62 367.80,88.61 368.24,86.63 367.63,84.71 365.99,82.82"/>
    </edge>
    <edge id=":249205826_7" function="internal">
        <lane id=":249205826_7_0" index="0" disallow="tram rail_urban rail rail_electric rail_fast ship" speed="8.13" length="14.32" shape="366.33,90.62 369.47,88.19 372.62,87.28 375.78,87.91 378.96,90.07"/>
    </edge>
    <edge id=":249205826_8" function="internal">
        <lane id=":249205826_8_0" index="0" disallow="tram rail_urban rail rail_electric rail_fast ship" speed="3.65" length="4.67" shape="366.33,90.62 367.74,90.32 368.59,90.60 368.89,91.44 368.62,92.86"/>
    </edge>
    <edge id=":249205827_0" function="internal">
        <lane id=":249205827_0_0" index="0" disallow="tram rail_urban rail rail_electric rail_fast ship" speed="6.49" length="9.08" shape="446.17,156.48 444.19,154.99 442.20,154.51 440.22,155.03 438.24,156.56"/>
    </edge>
    <edge id=":249205827_1" function="internal">
        <lane id=":249205827_1_0" index="0" disallow="tram rail_urban rail rail_electric rail_fast ship" speed="8.94" length="14.47" shape="446.17,156.48 435.73,146.47"/>
    </edge>
    <edge id=":249205827_2" function="internal">
        <lane id=":249205827_2_0" index="0" disallow="tram rail_urban rail rail_electric rail_fast ship" speed="3.65" length="1.44" shape="446.17,156.48 445.89,155.07"/>
    </edge>
    <edge id=":249205827_9" function="internal">
        <lane id=":249205827_9_0" index="0" disallow="tram rail_urban rail rail_electric rail_fast ship" speed="3.65" length="3.23" shape="445.89,155.07 446.17,154.22 447.02,153.94 448.44,154.22"/>
    </edge>
    <edge id=":249205827_3" function="internal">
        <lane id=":249205827_3_0" index="0" disallow="tram rail_urban rail rail_electric rail_fast ship" speed="8.94" length="14.61" shape="437.89,144.11 448.44,154.22"/>
    </edge>
    <edge id=":249205827_4" function="internal">
        <lane id=":249205827_4_0" index="0" disallow="tram rail_urban rail rail_electric rail_fast ship" speed="7.95" length="4.26" shape="437.89,144.11 440.39,147.15 440.48,147.47"/>
    </edge>
    <edge id=":249205827_5" function="internal">
        <lane id=":249205827_5_0" index="0" disallow="tram rail_urban rail rail_electric rail_fast ship" speed="3.65" length="1.44" shape="437.89,144.11 438.23,145.51"/>
    </edge>
    <edge id=":249205827_10" function="internal">
        <lane id=":249205827_10_0" index="0" disallow="tram rail_urban rail rail_electric rail_fast ship" speed="7.95" length="10.05" shape="440.48,147.47 441.28,150.25 440.56,153.38 438.24,156.56"/>
    </edge>
    <edge id=":249205827_11" function="internal">
        <lane id=":249205827_11_0" index="0" disallow="tram rail_urban rail rail_electric rail_fast ship" speed="3.65" length="3.23" shape="438.23,145.51 437.99,146.37 437.15,146.69 435.73,146.47"/>
    </edge>
    <edge id=":249205827_6" function="internal">
        <lane id=":249205827_6_0" index="0" disallow="tram rail_urban rail rail_electric rail_fast ship" speed="6.44" length="9.03" shape="435.95,154.33 437.41,152.32 437.86,150.34 437.30,148.39 435.73,146.47"/>
    </edge>
    <edge id=":249205827_7" function="internal">
        <lane id=":249205827_7_0" index="0" disallow="tram rail_urban rail rail_electric rail_fast ship" speed="7.99" length="14.29" shape="435.95,154.33 439.06,151.93 442.18,151.11 445.31,151.87 448.44,154.22"/>
    </edge>
    <edge id=":249205827_8" function="internal">
        <lane id=":249205827_8_0" index="0" disallow="tram rail_urban rail rail_electric rail_fast ship" speed="3.65" length="4.67" shape="435.95,154.33 437.36,154.03 438.21,154.30 438.50,155.15 438.24,156.56"/>
    </edge>
    <edge id=":249205831_0" function="internal">
        <lane id=":249205831_0_0" index="0" disallow="tram rail_urban rail rail_electric rail_fast ship" speed="8.94" length="14.34" shape="68.38,197.20 58.81,186.53"/>
    </edge>
    <edge id=":249205831_1" function="internal">
        <lane id=":249205831_1_0" index="0" disallow="tram rail_urban rail rail_electric rail_fast ship" speed="8.23" length="14.26" shape="68.38,197.20 66.32,194.03 65.73,190.85 66.62,187.69 69.00,184.52"/>
    </edge>
    <edge id=":249205831_2" function="internal">
        <lane id=":249205831_2_0" index="0" disallow="tram rail_urban rail rail_electric rail_fast ship" speed="3.65" length="4.67" shape="68.38,197.20 68.19,195.77 68.52,194.94 69.39,194.71 70.78,195.08"/>
    </edge>
    <edge id=":249205831_3" function="internal">
        <lane id=":249205831_3_0" index="0" disallow="tram rail_urban rail rail_electric rail_fast ship" speed="6.78" length="9.36" shape="71.28,186.77 69.70,188.86 69.09,190.94 69.45,193.02 70.78,195.08"/>
    </edge>
    <edge id=":249205831_4" function="internal">
        <lane id=":249205831_4_0" index="0" disallow="tram rail_urban rail rail_electric rail_fast ship" speed="7.91" length="14.41" shape="71.28,186.77 68.11,189.18 64.98,189.94 61.88,189.06 58.81,186.53"/>
    </edge>
    <edge id=":249205831_5" function="internal">
        <lane id=":249205831_5_0" index="0" disallow="tram rail_urban rail rail_electric rail_fast ship" speed="3.65" length="4.67" shape="71.28,186.77 69.86,187.06 69.01,186.79 68.72,185.94 69.00,184.52"/>
    </edge>
    <edge id=":249205831_6" function="internal">
        <lane id=":249205831_6_0" index="0" disallow="tram rail_urban rail rail_electric rail_fast ship" speed="6.39" length="9.04" shape="61.17,184.37 63.10,185.96 65.04,186.51 67.01,186.03 69.00,184.52"/>
    </edge>
    <edge id=":249205831_7" function="internal">
        <lane id=":249205831_7_0" index="0" disallow="tram rail_urban rail rail_electric rail_fast ship" speed="8.94" length="14.39" shape="61.17,184.37 70.78,195.08"/>
    </edge>
    <edge id=":249205831_8" function="internal">
        <lane id=":249205831_8_0" index="0" disallow="tram rail_urban rail rail_electric rail_fast ship" speed="3.65" length="4.67" shape="61.17,184.37 61.39,185.80 61.07,186.63 60.21,186.88 58.81,186.53"/>
    </edge>
    <edge id=":249205834_0" function="internal">
        <lane id=":249205834_0_0" index="0" disallow="tram rail_urban rail rail_electric rail_fast ship" speed="3.65" length="4.67" shape="146.91,287.93 148.06,288.80 148.41,289.62 147.97,290.40 146.72,291.12"/>
    </edge>
    <edge id=":249205837_0" function="internal">
        <lane id=":249205837_0_0" index="0" disallow="tram rail_urban rail rail_electric rail_fast ship" speed="3.65" length="4.67" shape="154.69,157.56 153.26,157.74 152.43,157.40 152.20,156.54 152.58,155.15"/>
    </edge>
    <edge id=":249205843_0" function="internal">
        <lane id=":249205843_0_0" index="0" disallow="tram rail_urban rail rail_electric rail_fast ship" speed="8.94" length="15.19" shape="139.79,87.53 132.78,74.05"/>
    </edge>
    <edge id=":249205843_1" function="internal">
        <lane id=":249205843_1_0" index="0" disallow="tram rail_urban rail rail_electric rail_fast ship" speed="7.44" length="16.37" shape="139.79,87.53 138.13,82.97 138.62,79.67 141.26,77.63 146.04,76.84"/>
    </edge>
    <edge id=":249205843_2" function="internal">
        <lane id=":249205843_2_0" index="0" disallow="tram rail_urban rail rail_electric rail_fast ship" speed="3.65" length="4.67" shape="139.79,87.53 139.94,86.09 140.46,85.36 141.36,85.34 142.62,86.03"/>
    </edge>
    <edge id=":249205843_3" function="internal">
        <lane id=":249205843_3_0" index="0" disallow="tram rail_urban rail rail_electric rail_fast ship" speed="5.74" length="9.18" shape="146.13,80.04 143.44,80.48 141.96,81.63 141.69,83.48 142.62,86.03"/>
    </edge>
    <edge id=":249205843_4" function="internal">
        <lane id=":249205843_4_0" index="0" disallow="tram rail_urban rail rail_electric rail_fast ship" speed="8.94" length="15.45" shape="146.13,80.04 141.48,79.77 137.71,78.68 134.81,76.77 132.78,74.05"/>
    </edge>
    <edge id=":249205843_5" function="internal">
        <lane id=":249205843_5_0" index="0" disallow="tram rail_urban rail rail_electric rail_fast ship" speed="3.65" length="4.67" shape="146.13,80.04 144.91,79.27 144.48,78.48 144.86,77.67 146.04,76.84"/>
    </edge>
    <edge id=":249205843_6" function="internal">
        <lane id=":249205843_6_0" index="0" disallow="tram rail_urban rail rail_electric rail_fast ship" speed="8.93" length="11.84" shape="135.63,72.60 137.13,74.54 139.37,75.89 142.34,76.66 146.04,76.84"/>
    </edge>
    <edge id=":249205843_7" function="internal">
        <lane id=":249205843_7_0" index="0" disallow="tram rail_urban rail rail_electric rail_fast ship" speed="8.94" length="15.15" shape="135.63,72.60 142.62,86.03"/>
    </edge>
    <edge id=":249205843_8" function="internal">
        <lane id=":249205843_8_0" index="0" disallow="tram rail_urban rail rail_electric rail_fast ship" speed="3.65" length="4.67" shape="135.63,72.60 135.46,74.03 134.93,74.75 134.04,74.75 132.78,74.05"/>
    </edge>
    <edge id=":249205844_0" function="internal">
        <lane id=":249205844_0_0" index="0" disallow="tram rail_urban rail rail_electric rail_fast ship" speed="3.92" length="2.36" shape="182.46,134.83 181.93,134.48 181.40,134.37 180.87,134.49 180.34,134.84"/>
    </edge>
    <edge id=":249205844_1" function="internal">
        <lane id=":249205844_1_0" index="0" disallow="tram rail_urban rail rail_electric rail_fast ship" speed="6.10" length="7.07" shape="178.21,132.46 179.79,131.39 181.38,131.03 182.97,131.38 184.56,132.42"/>
    </edge>
    <edge id=":249205846_0" function="internal">
        <lane id=":249205846_0_0" index="0" disallow="tram rail_urban rail rail_electric rail_fast ship" speed="6.95" length="9.59" shape="235.57,90.67 233.29,89.17 231.09,88.63 228.99,89.05 226.97,90.44"/>
    </edge>
    <edge id=":249205846_1" function="internal">
        <lane id=":249205846_1_0" index="0" disallow="tram rail_urban rail rail_electric rail_fast ship" speed="7.82" length="14.61" shape="235.57,90.67 232.89,87.62 231.94,84.52 232.72,81.38 235.23,78.19"/>
    </edge>
    <edge id=":249205846_2" function="internal">
        <lane id=":249205846_2_0" index="0" disallow="tram rail_urban rail rail_electric rail_fast ship" speed="3.65" length="4.67" shape="235.57,90.67 235.18,89.28 235.39,88.41 236.22,88.06 237.65,88.23"/>
    </edge>
    <edge id=":249205846_3" function="internal">
        <lane id=":249205846_3_0" index="0" disallow="tram rail_urban rail rail_electric rail_fast ship" speed="6.29" length="9.04" shape="237.44,80.51 235.88,82.48 235.40,84.43 235.99,86.35 237.65,88.23"/>
    </edge>
    <edge id=":249205846_4" function="internal">
        <lane id=":249205846_4_0" index="0" disallow="tram rail_urban rail rail_electric rail_fast ship" speed="8.94" length="14.43" shape="237.44,80.51 226.97,90.44"/>
    </edge>
    <edge id=":249205846_5" function="internal">
        <lane id=":249205846_5_0" index="0" disallow="tram rail_urban rail rail_electric rail_fast ship" speed="3.65" length="4.67" shape="237.44,80.51 236.02,80.75 235.18,80.45 234.92,79.59 235.23,78.19"/>
    </edge>
    <edge id=":249205846_6" function="internal">
        <lane id=":249205846_6_0" index="0" disallow="tram rail_urban rail rail_electric rail_fast ship" speed="8.94" length="14.43" shape="224.77,88.12 235.23,78.19"/>
    </edge>
    <edge id=":249205846_7" function="internal">
        <lane id=":249205846_7_0" index="0" disallow="tram rail_urban rail rail_electric rail_fast ship" speed="8.37" length="14.36" shape="224.77,88.12 227.84,85.98 231.00,85.29 234.28,86.04 237.65,88.23"/>
    </edge>
    <edge id=":249205846_8" function="internal">
        <lane id=":249205846_8_0" index="0" disallow="tram rail_urban rail rail_electric rail_fast ship" speed="3.65" length="4.67" shape="224.77,88.12 226.19,87.87 227.03,88.18 227.29,89.03 226.97,90.44"/>
    </edge>
    <edge id=":249205854_0" function="internal">
        <lane id=":249205854_0_0" index="0" disallow="tram rail_urban rail rail_electric rail_fast ship" speed="3.65" length="4.67" shape="243.49,221.01 242.08,221.31 241.23,221.04 240.94,220.19 241.20,218.77"/>
    </edge>
    <edge id=":249205859_0" function="internal">
        <lane id=":249205859_0_0" index="0" disallow="tram rail_urban rail rail_electric rail_fast ship" speed="7.13" length="2.99" shape="211.04,105.66 210.69,104.85 210.53,104.26 210.54,103.64 210.67,102.77"/>
    </edge>
    <edge id=":249205859_1" function="internal">
        <lane id=":249205859_1_0" index="0" disallow="tram rail_urban rail rail_electric rail_fast ship" speed="8.94" length="1.00" shape="213.82,103.34 213.78,103.63 213.77,103.84 213.83,104.04 213.94,104.31"/>
    </edge>
    <edge id=":249205860_0" function="internal">
        <lane id=":249205860_0_0" index="0" disallow="tram rail_urban rail rail_electric rail_fast ship" speed="8.94" length="14.42" shape="296.25,166.97 286.18,177.29"/>
    </edge>
    <edge id=":249205860_1" function="internal">
        <lane id=":249205860_1_0" index="0" disallow="tram rail_urban rail rail_electric rail_fast ship" speed="8.26" length="14.31" shape="296.25,166.97 293.24,169.26 290.11,170.07 286.86,169.41 283.50,167.28"/>
    </edge>
    <edge id=":249205860_2" function="internal">
        <lane id=":249205860_2_0" index="0" disallow="tram rail_urban rail rail_electric rail_fast ship" speed="3.65" length="4.67" shape="296.25,166.97 294.84,167.27 293.99,167.00 293.69,166.16 293.96,164.74"/>
    </edge>
    <edge id=":249205860_3" function="internal">
        <lane id=":249205860_3_0" index="0" disallow="tram rail_urban rail rail_electric rail_fast ship" speed="6.81" length="9.43" shape="285.56,164.83 287.80,166.26 289.94,166.72 292.00,166.22 293.96,164.74"/>
    </edge>
    <edge id=":249205860_4" function="internal">
        <lane id=":249205860_4_0" index="0" disallow="tram rail_urban rail rail_electric rail_fast ship" speed="7.87" length="14.49" shape="285.56,164.83 288.23,167.82 289.23,170.89 288.54,174.05 286.18,177.29"/>
    </edge>
    <edge id=":249205860_5" function="internal">
        <lane id=":249205860_5_0" index="0" disallow="tram rail_urban rail rail_electric rail_fast ship" speed="3.65" length="4.67" shape="285.56,164.83 285.96,166.21 285.75,167.08 284.93,167.44 283.50,167.28"/>
    </edge>
    <edge id=":249205860_6" function="internal">
        <lane id=":249205860_6_0" index="0" disallow="tram rail_urban rail rail_electric rail_fast ship" speed="6.35" length="9.04" shape="283.89,175.05 285.36,173.03 285.79,171.06 285.17,169.14 283.50,167.28"/>
    </edge>
    <edge id=":249205860_7" function="internal">
        <lane id=":249205860_7_0" index="0" disallow="tram rail_urban rail rail_electric rail_fast ship" speed="8.94" length="14.42" shape="283.89,175.05 293.96,164.74"/>
    </edge>
    <edge id=":249205860_8" function="internal">
        <lane id=":249205860_8_0" index="0" disallow="tram rail_urban rail rail_electric rail_fast ship" speed="3.65" length="4.67" shape="283.89,175.05 285.30,174.75 286.15,175.03 286.44,175.87 286.18,177.29"/>
    </edge>
    <edge id=":249205861_0" function="internal">
        <lane id=":249205861_0_0" index="0" disallow="tram rail_urban rail rail_electric rail_fast ship" speed="8.94" length="14.41" shape="315.29,147.48 305.22,157.79"/>
    </edge>
    <edge id=":249205861_1" function="internal">
        <lane id=":249205861_1_0" index="0" disallow="tram rail_urban rail rail_electric rail_fast ship" speed="8.23" length="14.30" shape="315.29,147.48 312.27,149.77 309.14,150.58 305.91,149.92 302.57,147.76"/>
    </edge>
    <edge id=":249205861_2" function="internal">
        <lane id=":249205861_2_0" index="0" disallow="tram rail_urban rail rail_electric rail_fast ship" speed="3.65" length="4.67" shape="315.29,147.48 313.88,147.78 313.03,147.51 312.73,146.66 313.00,145.24"/>
    </edge>
    <edge id=":249205861_3" function="internal">
        <lane id=":249205861_3_0" index="0" disallow="tram rail_urban rail rail_electric rail_fast ship" speed="6.78" length="9.39" shape="304.65,145.33 306.86,146.76 308.99,147.23 311.04,146.72 313.00,145.24"/>
    </edge>
    <edge id=":249205861_4" function="internal">
        <lane id=":249205861_4_0" index="0" disallow="tram rail_urban rail rail_electric rail_fast ship" speed="7.88" length="14.46" shape="304.65,145.33 307.29,148.33 308.27,151.41 307.58,154.56 305.22,157.79"/>
    </edge>
    <edge id=":249205861_5" function="internal">
        <lane id=":249205861_5_0" index="0" disallow="tram rail_urban rail rail_electric rail_fast ship" speed="3.65" length="4.67" shape="304.65,145.33 305.04,146.71 304.83,147.58 304.00,147.93 302.57,147.76"/>
    </edge>
    <edge id=":249205861_6" function="internal">
        <lane id=":249205861_6_0" index="0" disallow="tram rail_urban rail rail_electric rail_fast ship" speed="6.36" length="9.04" shape="302.93,155.56 304.40,153.54 304.83,151.56 304.22,149.64 302.57,147.76"/>
    </edge>
    <edge id=":249205861_7" function="internal">
        <lane id=":249205861_7_0" index="0" disallow="tram rail_urban rail rail_electric rail_fast ship" speed="8.94" length="14.41" shape="302.93,155.56 313.00,145.24"/>
    </edge>
    <edge id=":249205861_8" function="internal">
        <lane id=":249205861_8_0" index="0" disallow="tram rail_urban rail rail_electric rail_fast ship" speed="3.65" length="4.67" shape="302.93,155.56 304.34,155.26 305.19,155.53 305.48,156.37 305.22,157.79"/>
    </edge>
    <edge id=":249205863_0" function="internal">
        <lane id=":249205863_0_0" index="0" disallow="tram rail_urban rail rail_electric rail_fast ship" speed="7.05" length="9.88" shape="257.60,70.19 255.19,68.61 252.92,68.01 250.76,68.40 248.73,69.78"/>
    </edge>
    <edge id=":249205863_1" function="internal">
        <lane id=":249205863_1_0" index="0" disallow="tram rail_urban rail rail_electric rail_fast ship" speed="7.70" length="14.97" shape="257.60,70.19 254.79,67.04 253.87,63.90 254.85,60.79 257.72,57.69"/>
    </edge>
    <edge id=":249205863_2" function="internal">
        <lane id=":249205863_2_0" index="0" disallow="tram rail_urban rail rail_electric rail_fast ship" speed="3.65" length="4.67" shape="257.60,70.19 257.19,68.80 257.40,67.93 258.22,67.58 259.66,67.74"/>
    </edge>
    <edge id=":249205863_3" function="internal">
        <lane id=":249205863_3_0" index="0" disallow="tram rail_urban rail rail_electric rail_fast ship" speed="6.13" length="9.06" shape="259.73,60.18 257.99,62.05 257.40,63.94 257.96,65.83 259.66,67.74"/>
    </edge>
    <edge id=":249205863_4" function="internal">
        <lane id=":249205863_4_0" index="0" disallow="tram rail_urban rail rail_electric rail_fast ship" speed="8.94" length="14.60" shape="259.73,60.18 248.73,69.78"/>
    </edge>
    <edge id=":249205863_5" function="internal">