<?xml version="1.0" encoding="UTF-8"?>

<!-- generated on 2024-04-04 10:37:53 by Eclipse SUMO netconvert Version 1.19.0
<configuration xmlns:xsi="http://www.w3.org/2001/XMLSchema-instance" xsi:noNamespaceSchemaLocation="http://sumo.dlr.de/xsd/netconvertConfiguration.xsd">

    <input>
        <osm-files value="/Users/shripal/Documents/Study/PathFinding/osm_sumo_final/LS90BT.osm"/>
    </input>

    <output>
        <output-file value="./sumo_network.net.xml"/>
        <plain-output-prefix value="./osm_net"/>
    </output>

    <projection>
        <proj.utm value="true"/>
    </projection>

    <formats>
        <osm.all-attributes value="false"/>
    </formats>

</configuration>
-->

<edges version="1.16" xmlns:xsi="http://www.w3.org/2001/XMLSchema-instance" xsi:noNamespaceSchemaLocation="http://sumo.dlr.de/xsd/edges_file.xsd">
    <location netOffset="-597344.87,-5960790.54" convBoundary="0.00,0.00,571.58,506.79" origBoundary="-1.522307,53.786524,-1.513627,53.791074" projParameter="+proj=utm +zone=30 +ellps=WGS84 +datum=WGS84 +units=m +no_defs"/>

    <edge id="-195024977" from="2055250797" to="2055250795" priority="3" type="highway.residential" numLanes="1" speed="8.94" shape="125.54,393.43 124.41,380.24 111.66,370.34 90.78,375.36" disallow="tram rail_urban rail rail_electric rail_fast ship"/>
    <edge id="-195024981" from="2055250784" to="2055250787" priority="4" type="highway.unclassified" numLanes="1" speed="13.89" shape="266.97,148.15 272.77,159.82 273.76,171.26 273.65,180.74" disallow="tram rail_urban rail rail_electric rail_fast ship"/>
    <edge id="-23089283#0" from="249205822" to="249298905" priority="10" type="highway.tertiary" numLanes="1" speed="8.94" disallow="tram rail_urban rail rail_electric rail_fast ship"/>
    <edge id="-23089283#1" from="249205823" to="249205822" priority="10" type="highway.tertiary" numLanes="1" speed="8.94" shape="113.89,182.32 102.28,183.04 90.10,185.36" disallow="tram rail_urban rail rail_electric rail_fast ship"/>
    <edge id="-23089283#2" from="249300857" to="249205823" priority="10" type="highway.tertiary" numLanes="1" speed="8.94" shape="219.49,181.06 191.12,181.30 123.03,182.32 113.89,182.32" disallow="tram rail_urban rail rail_electric rail_fast ship"/>
    <edge id="-23089283#3" from="2055250787" to="249300857" priority="10" type="highway.tertiary" numLanes="1" speed="8.94" shape="273.65,180.74 260.57,180.33 255.09,180.26 238.68,180.83 219.49,181.06" disallow="tram rail_urban rail rail_electric rail_fast ship"/>
    <edge id="-23089287" from="249301796" to="249205837" priority="1" type="highway.cycleway" numLanes="1" speed="5.56" shape="119.72,332.68 151.76,305.12 152.48,304.50" width="2.00" allow="pedestrian bicycle"/>
    <edge id="-23089302" from="249205842" to="249205822" priority="1" type="highway.service" numLanes="1" speed="5.56" shape="162.84,295.45 158.07,291.01 144.69,279.35 131.63,266.28 122.14,252.03 104.28,222.24 97.27,205.89 92.99,194.22 90.10,185.36" allow="pedestrian delivery bicycle"/>
    <edge id="-23089303#0" from="249205848" to="249205823" priority="3" type="highway.residential" numLanes="1" speed="8.94" disallow="tram rail_urban rail rail_electric rail_fast ship"/>
    <edge id="-23089303#1" from="249205843" to="249205848" priority="3" type="highway.residential" numLanes="1" speed="8.94" disallow="tram rail_urban rail rail_electric rail_fast ship"/>
    <edge id="-23089303#2" from="8838547366" to="249205843" priority="3" type="highway.residential" numLanes="1" speed="8.94" shape="172.73,272.18 144.16,242.70 135.79,226.84" disallow="tram rail_urban rail rail_electric rail_fast ship"/>
    <edge id="-23089312#0" from="5854249914" to="249205844" priority="3" type="highway.residential" numLanes="1" speed="8.94" disallow="tram rail_urban rail rail_electric rail_fast ship"/>
    <edge id="-23089312#1" from="249205856" to="5854249914" priority="3" type="highway.residential" numLanes="1" speed="8.94" disallow="tram rail_urban rail rail_electric rail_fast ship"/>
    <edge id="-23089314#0" from="5854249913" to="249205859" priority="3" type="highway.residential" numLanes="1" speed="8.94" shape="247.64,284.22 212.50,255.61 210.91,252.21" disallow="tram rail_urban rail rail_electric rail_fast ship"/>
    <edge id="-23089314#1" from="249205860" to="5854249913" priority="3" type="highway.residential" numLanes="1" speed="8.94" disallow="tram rail_urban rail rail_electric rail_fast ship"/>
    <edge id="-23089315" from="249205846" to="249205861" priority="3" type="highway.residential" numLanes="1" speed="8.94" disallow="tram rail_urban rail rail_electric rail_fast ship"/>
    <edge id="-23089316" from="249205863" to="249205862" priority="3" type="highway.residential" numLanes="1" speed="8.94" disallow="tram rail_urban rail rail_electric rail_fast ship"/>
    <edge id="-23089317" from="249205865" to="249205864" priority="3" type="highway.residential" numLanes="1" speed="8.94" shape="274.20,195.86 277.92,197.02 349.68,256.93" disallow="tram rail_urban rail rail_electric rail_fast ship"/>
    <edge id="-23091391#0" from="249263710" to="8974203655" priority="3" type="highway.residential" numLanes="1" speed="8.94" disallow="tram rail_urban rail rail_electric rail_fast ship"/>
    <edge id="-23091391#1" from="249263712" to="249263710" priority="3" type="highway.residential" numLanes="1" speed="8.94" disallow="tram rail_urban rail rail_electric rail_fast ship"/>
    <edge id="-23091391#2" from="249263714" to="249263712" priority="3" type="highway.residential" numLanes="1" speed="8.94" disallow="tram rail_urban rail rail_electric rail_fast ship"/>
    <edge id="-23091391#3" from="249263687" to="249263714" priority="3" type="highway.residential" numLanes="1" speed="8.94" disallow="tram rail_urban rail rail_electric rail_fast ship"/>
    <edge id="-23091391#4" from="249263707" to="249263687" priority="3" type="highway.residential" numLanes="1" speed="8.94" disallow="tram rail_urban rail rail_electric rail_fast ship"/>
    <edge id="-23091391#5" from="249263705" to="249263707" priority="3" type="highway.residential" numLanes="1" speed="8.94" disallow="tram rail_urban rail rail_electric rail_fast ship"/>
    <edge id="-23091391#6" from="8974203659" to="249263705" priority="3" type="highway.residential" numLanes="1" speed="8.94" disallow="tram rail_urban rail rail_electric rail_fast ship"/>
    <edge id="-23091392#0" from="249263690" to="249263689" priority="1" type="highway.service" numLanes="1" speed="8.94" shape="341.25,401.35 293.27,380.50 257.94,360.14 252.16,356.81" allow="pedestrian delivery bicycle"/>
    <edge id="-23091392#1" from="249263691" to="249263690" priority="1" type="highway.service" numLanes="1" speed="8.94" allow="pedestrian delivery bicycle"/>
    <edge id="-23091393#0" from="249263698" to="249263691" priority="3" type="highway.residential" numLanes="1" speed="8.94" shape="448.83,386.05 432.25,404.23 425.10,411.67 412.47,425.87" disallow="tram rail_urban rail rail_electric rail_fast ship"/>
    <edge id="-23091393#1" from="249263696" to="249263698" priority="3" type="highway.residential" numLanes="1" speed="8.94" disallow="tram rail_urban rail rail_electric rail_fast ship"/>
    <edge id="-23091393#2" from="249263692" to="249263696" priority="3" type="highway.residential" numLanes="1" speed="8.94" disallow="tram rail_urban rail rail_electric rail_fast ship"/>
    <edge id="-23091394#0" from="249263693" to="249205827" priority="3" type="highway.residential" numLanes="1" speed="8.94" disallow="tram rail_urban rail rail_electric rail_fast ship"/>
    <edge id="-23091394#1" from="249263694" to="249263693" priority="3" type="highway.residential" numLanes="1" speed="8.94" disallow="tram rail_urban rail rail_electric rail_fast ship"/>
    <edge id="-23091394#2" from="249263687" to="249263694" priority="3" type="highway.residential" numLanes="1" speed="8.94" disallow="tram rail_urban rail rail_electric rail_fast ship"/>
    <edge id="-23091394#3" from="249263690" to="249263687" priority="3" type="highway.residential" numLanes="1" speed="8.94" disallow="tram rail_urban rail rail_electric rail_fast ship"/>
    <edge id="-23091395#0" from="249263696" to="249263695" priority="3" type="highway.residential" numLanes="1" speed="8.94" disallow="tram rail_urban rail rail_electric rail_fast ship"/>
    <edge id="-23091395#1" from="249263693" to="249263696" priority="3" type="highway.residential" numLanes="1" speed="8.94" disallow="tram rail_urban rail rail_electric rail_fast ship"/>
    <edge id="-23091395#2" from="249205864" to="249263693" priority="3" type="highway.residential" numLanes="1" speed="8.94" shape="349.68,256.93 354.18,261.22 417.87,322.13" disallow="tram rail_urban rail rail_electric rail_fast ship"/>
    <edge id="-23091396#0" from="249263698" to="249263697" priority="3" type="highway.residential" numLanes="1" speed="8.94" disallow="tram rail_urban rail rail_electric rail_fast ship"/>
    <edge id="-23091396#1" from="249263706" to="249263698" priority="3" type="highway.residential" numLanes="1" speed="8.94" disallow="tram rail_urban rail rail_electric rail_fast ship"/>
    <edge id="-23091396#2" from="249263708" to="249263706" priority="3" type="highway.residential" numLanes="1" speed="8.94" disallow="tram rail_urban rail rail_electric rail_fast ship"/>
    <edge id="-23091396#3" from="249263694" to="249263708" priority="3" type="highway.residential" numLanes="1" speed="8.94" disallow="tram rail_urban rail rail_electric rail_fast ship"/>
    <edge id="-23091396#4" from="249263699" to="249263694" priority="3" type="highway.residential" numLanes="1" speed="8.94" disallow="tram rail_urban rail rail_electric rail_fast ship"/>
    <edge id="-23091396#5" from="249263713" to="249263699" priority="3" type="highway.residential" numLanes="1" speed="8.94" disallow="tram rail_urban rail rail_electric rail_fast ship"/>
    <edge id="-23091396#6" from="249263700" to="249263713" priority="3" type="highway.residential" numLanes="1" speed="8.94" disallow="tram rail_urban rail rail_electric rail_fast ship"/>
    <edge id="-23091396#7" from="1676360522" to="249263700" priority="3" type="highway.residential" numLanes="1" speed="8.94" shape="333.64,273.37 337.22,277.32 347.64,288.80" disallow="tram rail_urban rail rail_electric rail_fast ship"/>
    <edge id="-23091398" from="249263706" to="249263705" priority="3" type="highway.residential" numLanes="1" speed="8.94" disallow="tram rail_urban rail rail_electric rail_fast ship"/>
    <edge id="-23091399" from="249263708" to="249263707" priority="3" type="highway.residential" numLanes="1" speed="8.94" disallow="tram rail_urban rail rail_electric rail_fast ship"/>
    <edge id="-23091400" from="249263709" to="249263700" priority="3" type="highway.residential" numLanes="1" speed="8.94" disallow="tram rail_urban rail rail_electric rail_fast ship"/>
    <edge id="-23091401" from="249263711" to="249263710" priority="3" type="highway.residential" numLanes="1" speed="8.94" disallow="tram rail_urban rail rail_electric rail_fast ship"/>
    <edge id="-23091402#0" from="3181274273" to="249263712" priority="3" type="highway.residential" numLanes="1" speed="8.94" disallow="tram rail_urban rail rail_electric rail_fast ship"/>
    <edge id="-23091402#1" from="249263713" to="3181274273" priority="3" type="highway.residential" numLanes="1" speed="8.94" disallow="tram rail_urban rail rail_electric rail_fast ship"/>
    <edge id="-23091403" from="249263714" to="249263699" priority="3" type="highway.residential" numLanes="1" speed="8.94" disallow="tram rail_urban rail rail_electric rail_fast ship"/>
    <edge id="-23094442" from="249300795" to="249205843" priority="3" type="highway.residential" numLanes="1" speed="8.94" disallow="tram rail_urban rail rail_electric rail_fast ship"/>
    <edge id="-23094477#0" from="249302151" to="249301796" priority="1" type="highway.cycleway" numLanes="1" speed="5.56" width="2.00" allow="pedestrian bicycle"/>
    <edge id="-23094477#1" from="2068163205" to="249302151" priority="1" type="highway.cycleway" numLanes="1" speed="5.56" shape="0.00,418.63 26.95,397.74 79.59,356.94 83.69,353.92 109.99,334.50 113.89,336.60" width="2.00" allow="pedestrian bicycle"/>
    <edge id="-286772940#0" from="249300795" to="8838547372" priority="3" type="highway.residential" numLanes="1" speed="8.94" disallow="tram rail_urban rail rail_electric rail_fast ship"/>
    <edge id="-286772940#1" from="249205845" to="249300795" priority="3" type="highway.residential" numLanes="1" speed="8.94" disallow="tram rail_urban rail rail_electric rail_fast ship"/>
    <edge id="-286772940#2" from="249300857" to="249205845" priority="3" type="highway.residential" numLanes="1" speed="8.94" disallow="tram rail_urban rail rail_electric rail_fast ship"/>
    <edge id="-312274214" from="3181274272" to="3181274273" priority="1" type="highway.service" numLanes="1" speed="8.94" allow="pedestrian delivery bicycle"/>
    <edge id="-352963640#0" from="2068163161" to="2055250787" priority="10" type="highway.tertiary" numLanes="1" speed="8.94" shape="365.96,229.83 325.44,194.87 306.33,184.58 284.54,181.09 273.65,180.74" disallow="tram rail_urban rail rail_electric rail_fast ship"/>
    <edge id="-352963640#1" from="249205826" to="2068163161" priority="10" type="highway.tertiary" numLanes="1" speed="8.94" disallow="tram rail_urban rail rail_electric rail_fast ship"/>
    <edge id="-352963640#2" from="9416622073" to="249205826" priority="10" type="highway.tertiary" numLanes="1" speed="8.94" disallow="tram rail_urban rail rail_electric rail_fast ship"/>
    <edge id="-352963640#3" from="6177973904" to="9416622073" priority="10" type="highway.tertiary" numLanes="1" speed="8.94" disallow="tram rail_urban rail rail_electric rail_fast ship"/>
    <edge id="-352963640#4" from="9416622074" to="6177973904" priority="10" type="highway.tertiary" numLanes="1" speed="8.94" disallow="tram rail_urban rail rail_electric rail_fast ship"/>
    <edge id="-352963640#5" from="2068163166" to="9416622074" priority="10" type="highway.tertiary" numLanes="1" speed="8.94" disallow="tram rail_urban rail rail_electric rail_fast ship"/>
    <edge id="-352963640#6" from="249205827" to="2068163166" priority="10" type="highway.tertiary" numLanes="1" speed="8.94" disallow="tram rail_urban rail rail_electric rail_fast ship"/>
    <edge id="-352963640#7" from="249263692" to="249205827" priority="10" type="highway.tertiary" numLanes="1" speed="8.94" disallow="tram rail_urban rail rail_electric rail_fast ship"/>
    <edge id="-352963640#8" from="6223271091" to="249263692" priority="10" type="highway.tertiary" numLanes="1" speed="8.94" shape="571.58,441.20 564.54,433.11 559.10,426.75 556.05,422.28 548.89,413.83 531.95,390.98 514.72,371.15 489.55,347.02 488.68,346.18" disallow="tram rail_urban rail rail_electric rail_fast ship"/>
    <edge id="-375014110" from="3181274270" to="1887606714" priority="1" type="highway.cycleway" numLanes="1" speed="5.56" shape="127.39,116.57 118.15,123.18 97.15,131.57 83.63,139.69" width="2.00" allow="pedestrian bicycle"/>
    <edge id="-619506568#0" from="249205845" to="249205848" priority="1" type="highway.service" numLanes="1" speed="5.56" shape="219.84,201.23 212.01,201.37 133.28,202.76 123.60,202.92" allow="pedestrian delivery bicycle"/>
    <edge id="-619506568#1" from="249205849" to="249205845" priority="1" type="highway.service" numLanes="1" speed="5.56" shape="265.54,200.63 254.56,200.58 219.84,201.23" allow="pedestrian delivery bicycle"/>
    <edge id="-619506569#0" from="249205849" to="249205865" priority="3" type="highway.residential" numLanes="1" speed="8.94" shape="265.54,200.63 270.03,196.72 274.20,195.86" disallow="tram rail_urban rail rail_electric rail_fast ship"/>
    <edge id="-619506569#1" from="249205863" to="249205849" priority="3" type="highway.residential" numLanes="1" speed="8.94" disallow="tram rail_urban rail rail_electric rail_fast ship"/>
    <edge id="-619506569#2" from="249205846" to="249205863" priority="3" type="highway.residential" numLanes="1" speed="8.94" disallow="tram rail_urban rail rail_electric rail_fast ship"/>
    <edge id="-619506569#3" from="3783970907" to="249205846" priority="3" type="highway.residential" numLanes="1" speed="8.94" disallow="tram rail_urban rail rail_electric rail_fast ship"/>
    <edge id="-619506569#4" from="249205859" to="3783970907" priority="3" type="highway.residential" numLanes="1" speed="8.94" shape="210.91,252.21 211.46,249.19 222.92,239.13" disallow="tram rail_urban rail rail_electric rail_fast ship"/>
    <edge id="-619506570" from="2055250787" to="249205865" priority="1" type="highway.cycleway" numLanes="1" speed="5.56" shape="273.65,180.74 273.85,186.30 274.20,195.86" width="2.00" allow="pedestrian bicycle"/>
    <edge id="-619506571" from="5854249914" to="5854249913" priority="2" type="highway.living_street" numLanes="1" speed="8.94" disallow="tram rail_urban rail rail_electric rail_fast ship"/>
    <edge id="-619506572#0" from="249205864" to="249205826" priority="3" type="highway.residential" numLanes="1" speed="8.94" disallow="tram rail_urban rail rail_electric rail_fast ship"/>
    <edge id="-619506572#1" from="1676360522" to="249205864" priority="3" type="highway.residential" numLanes="1" speed="8.94" disallow="tram rail_urban rail rail_electric rail_fast ship"/>
    <edge id="-619506572#2" from="249205862" to="1676360522" priority="3" type="highway.residential" numLanes="1" speed="8.94" disallow="tram rail_urban rail rail_electric rail_fast ship"/>
    <edge id="-619506572#3" from="249205861" to="249205862" priority="3" type="highway.residential" numLanes="1" speed="8.94" disallow="tram rail_urban rail rail_electric rail_fast ship"/>
    <edge id="-619506572#4" from="249205860" to="249205861" priority="3" type="highway.residential" numLanes="1" speed="8.94" shape="289.08,318.99 294.30,313.65 308.11,299.51" disallow="tram rail_urban rail rail_electric rail_fast ship"/>
    <edge id="-619506572#5" from="249263686" to="249205860" priority="3" type="highway.residential" numLanes="1" speed="8.94" disallow="tram rail_urban rail rail_electric rail_fast ship"/>
    <edge id="-619506572#6" from="249205856" to="249263686" priority="3" type="highway.residential" numLanes="1" speed="8.94" disallow="tram rail_urban rail rail_electric rail_fast ship"/>
    <edge id="-619506572#7" from="249263689" to="249205856" priority="3" type="highway.residential" numLanes="1" speed="8.94" disallow="tram rail_urban rail rail_electric rail_fast ship"/>
    <edge id="-619506572#8" from="249205854" to="249263689" priority="3" type="highway.residential" numLanes="1" speed="8.94" disallow="tram rail_urban rail rail_electric rail_fast ship"/>
    <edge id="-619506573#0" from="249205842" to="249205844" priority="3" type="highway.residential" numLanes="1" speed="8.94" disallow="tram rail_urban rail rail_electric rail_fast ship"/>
    <edge id="-619506573#1" from="249205837" to="249205842" priority="3" type="highway.residential" numLanes="1" speed="8.94" disallow="tram rail_urban rail rail_electric rail_fast ship"/>
    <edge id="-707094864#0" from="2058729100" to="2055250784" priority="4" type="highway.unclassified" numLanes="1" speed="13.89" disallow="tram rail_urban rail rail_electric rail_fast ship"/>
    <edge id="-707094864#1" from="2055250782" to="2058729100" priority="4" type="highway.unclassified" numLanes="1" speed="13.89" shape="229.77,125.64 250.38,135.76 257.94,140.18" disallow="tram rail_urban rail rail_electric rail_fast ship"/>
    <edge id="-707094864#2" from="2055250779" to="2055250782" priority="4" type="highway.unclassified" numLanes="1" speed="13.89" shape="163.52,114.88 185.37,116.33 203.19,118.46 229.77,125.64" disallow="tram rail_urban rail rail_electric rail_fast ship"/>
    <edge id="-707094878#0" from="6644903664" to="6644903656" priority="1" type="highway.service" numLanes="1" speed="5.56" allow="pedestrian delivery bicycle"/>
    <edge id="-707094878#1" from="6644903657" to="6644903664" priority="1" type="highway.service" numLanes="1" speed="5.56" allow="pedestrian delivery bicycle"/>
    <edge id="-707094880#0" from="6644903673" to="6644903664" priority="1" type="highway.path" numLanes="1" speed="5.56" width="2.00" allow="pedestrian bicycle"/>
    <edge id="-707094880#1" from="6644903669" to="6644903673" priority="1" type="highway.path" numLanes="1" speed="5.56" shape="542.52,251.80 510.02,255.90 479.89,257.59 456.38,255.23 438.19,243.92 435.05,240.54" width="2.00" allow="pedestrian bicycle"/>
    <edge id="-707094881" from="6644903673" to="6644903674" priority="1" type="highway.path" numLanes="1" speed="5.56" shape="435.05,240.54 438.08,249.83 445.15,265.01 461.19,285.32 491.56,312.05" width="2.00" allow="pedestrian bicycle"/>
    <edge id="-954908738" from="249205844" to="8838547366" priority="1" type="highway.cycleway" numLanes="1" speed="5.56" shape="180.23,279.92 174.33,273.84 172.73,272.18" width="2.00" allow="pedestrian bicycle"/>
    <edge id="-954908741" from="8838547372" to="3783970907" priority="1" type="highway.cycleway" numLanes="1" speed="5.56" shape="219.97,229.52 221.19,233.47 222.92,239.13" width="2.00" allow="pedestrian bicycle"/>
    <edge id="-954908745" from="8838547400" to="2055250782" priority="1" type="highway.service" numLanes="1" speed="5.56" shape="224.21,149.58 224.43,139.11 227.33,131.28 229.77,125.64" allow="pedestrian delivery bicycle"/>
    <edge id="-954908746#0" from="8838547400" to="8838547401" priority="1" type="highway.service" numLanes="1" speed="5.56" allow="pedestrian delivery bicycle"/>
    <edge id="-954908746#1" from="8838547402" to="8838547400" priority="1" type="highway.service" numLanes="1" speed="5.56" allow="pedestrian delivery bicycle"/>
    <edge id="-969773706" from="8974203656" to="249263686" priority="3" type="highway.residential" numLanes="1" speed="8.94" disallow="tram rail_urban rail rail_electric rail_fast ship"/>
    <edge id="-969773707" from="8974203655" to="8974203656" priority="1" type="highway.cycleway" numLanes="1" speed="5.56" shape="274.06,346.78 272.84,345.98 271.70,345.23" width="2.00" allow="pedestrian bicycle"/>
    <edge id="195024977" from="2055250795" to="2055250797" priority="3" type="highway.residential" numLanes="1" speed="8.94" shape="90.78,375.36 111.66,370.34 124.41,380.24 125.54,393.43" disallow="tram rail_urban rail rail_electric rail_fast ship"/>
    <edge id="195024981" from="2055250787" to="2055250784" priority="4" type="highway.unclassified" numLanes="1" speed="13.89" shape="273.65,180.74 273.76,171.26 272.77,159.82 266.97,148.15" disallow="tram rail_urban rail rail_electric rail_fast ship"/>
    <edge id="195427381#0" from="2058729100" to="7239177399" priority="1" type="highway.footway" numLanes="1" speed="2.78" spreadType="center" width="2.00" allow="pedestrian"/>
    <edge id="195427381#1" from="7239177399" to="8838547501" priority="1" type="highway.footway" numLanes="1" speed="2.78" spreadType="center" width="2.00" allow="pedestrian"/>
    <edge id="195427381#2" from="8838547501" to="3174878065" priority="1" type="highway.footway" numLanes="1" speed="2.78" shape="263.80,133.28 288.13,104.63 290.09,102.32 293.77,96.49 319.97,72.91 329.39,64.44 337.49,0.00" spreadType="center" width="2.00" allow="pedestrian"/>
    <edge id="196489087#0" from="2068163166" to="6644903657" priority="1" type="highway.service" numLanes="1" speed="5.56" shape="408.90,268.90 411.99,252.22 412.50,244.39 411.48,242.57" spreadType="center" allow="pedestrian delivery bicycle"/>
    <edge id="196489087#1" from="6644903657" to="2068163161" priority="1" type="highway.service" numLanes="1" speed="5.56" shape="411.48,242.57 410.32,240.51 389.09,219.86 383.35,219.05 374.04,221.82 365.96,229.83" spreadType="center" allow="pedestrian delivery bicycle"/>
    <edge id="23089283#0" from="249298905" to="249205822" priority="10" type="highway.tertiary" numLanes="1" speed="8.94" disallow="tram rail_urban rail rail_electric rail_fast ship"/>
    <edge id="23089283#1" from="249205822" to="249205823" priority="10" type="highway.tertiary" numLanes="1" speed="8.94" shape="90.10,185.36 102.28,183.04 113.89,182.32" disallow="tram rail_urban rail rail_electric rail_fast ship"/>
    <edge id="23089283#2" from="249205823" to="249300857" priority="10" type="highway.tertiary" numLanes="1" speed="8.94" shape="113.89,182.32 123.03,182.32 191.12,181.30 219.49,181.06" disallow="tram rail_urban rail rail_electric rail_fast ship"/>
    <edge id="23089283#3" from="249300857" to="2055250787" priority="10" type="highway.tertiary" numLanes="1" speed="8.94" shape="219.49,181.06 238.68,180.83 255.09,180.26 260.57,180.33 273.65,180.74" disallow="tram rail_urban rail rail_electric rail_fast ship"/>
    <edge id="23089287" from="249205837" to="249301796" priority="1" type="highway.cycleway" numLanes="1" speed="5.56" shape="152.48,304.50 151.76,305.12 119.72,332.68" width="2.00" allow="pedestrian bicycle"/>
    <edge id="23089302" from="249205822" to="249205842" priority="1" type="highway.service" numLanes="1" speed="5.56" shape="90.10,185.36 92.99,194.22 97.27,205.89 104.28,222.24 122.14,252.03 131.63,266.28 144.69,279.35 158.07,291.01 162.84,295.45" allow="pedestrian delivery bicycle"/>
    <edge id="23089303#0" from="249205823" to="249205848" priority="3" type="highway.residential" numLanes="1" speed="8.94" disallow="tram rail_urban rail rail_electric rail_fast ship"/>
    <edge id="23089303#1" from="249205848" to="249205843" priority="3" type="highway.residential" numLanes="1" speed="8.94" disallow="tram rail_urban rail rail_electric rail_fast ship"/>
    <edge id="23089303#2" from="249205843" to="8838547366" priority="3" type="highway.residential" numLanes="1" speed="8.94" shape="135.79,226.84 144.16,242.70 172.73,272.18" disallow="tram rail_urban rail rail_electric rail_fast ship"/>
    <edge id="23089312#0" from="249205844" to="5854249914" priority="3" type="highway.residential" numLanes="1" speed="8.94" disallow="tram rail_urban rail rail_electric rail_fast ship"/>
    <edge id="23089312#1" from="5854249914" to="249205856" priority="3" type="highway.residential" numLanes="1" speed="8.94" disallow="tram rail_urban rail rail_electric rail_fast ship"/>
    <edge id="23089314#0" from="249205859" to="5854249913" priority="3" type="highway.residential" numLanes="1" speed="8.94" shape="210.91,252.21 212.50,255.61 247.64,284.22" disallow="tram rail_urban rail rail_electric rail_fast ship"/>
    <edge id="23089314#1" from="5854249913" to="249205860" priority="3" type="highway.residential" numLanes="1" speed="8.94" disallow="tram rail_urban rail rail_electric rail_fast ship"/>
    <edge id="23089315" from="249205861" to="249205846" priority="3" type="highway.residential" numLanes="1" speed="8.94" disallow="tram rail_urban rail rail_electric rail_fast ship"/>
    <edge id="23089316" from="249205862" to="249205863" priority="3" type="highway.residential" numLanes="1" speed="8.94" disallow="tram rail_urban rail rail_electric rail_fast ship"/>
    <edge id="23089317" from="249205864" to="249205865" priority="3" type="highway.residential" numLanes="1" speed="8.94" shape="349.68,256.93 277.92,197.02 274.20,195.86" disallow="tram rail_urban rail rail_electric rail_fast ship"/>
    <edge id="23091391#0" from="8974203655" to="249263710" priority="3" type="highway.residential" numLanes="1" speed="8.94" disallow="tram rail_urban rail rail_electric rail_fast ship"/>
    <edge id="23091391#1" from="249263710" to="249263712" priority="3" type="highway.residential" numLanes="1" speed="8.94" disallow="tram rail_urban rail rail_electric rail_fast ship"/>
    <edge id="23091391#2" from="249263712" to="249263714" priority="3" type="highway.residential" numLanes="1" speed="8.94" disallow="tram rail_urban rail rail_electric rail_fast ship"/>
    <edge id="23091391#3" from="249263714" to="249263687" priority="3" type="highway.residential" numLanes="1" speed="8.94" disallow="tram rail_urban rail rail_electric rail_fast ship"/>
    <edge id="23091391#4" from="249263687" to="249263707" priority="3" type="highway.residential" numLanes="1" speed="8.94" disallow="tram rail_urban rail rail_electric rail_fast ship"/>
    <edge id="23091391#5" from="249263707" to="249263705" priority="3" type="highway.residential" numLanes="1" speed="8.94" disallow="tram rail_urban rail rail_electric rail_fast ship"/>
    <edge id="23091391#6" from="249263705" to="8974203659" priority="3" type="highway.residential" numLanes="1" speed="8.94" disallow="tram rail_urban rail rail_electric rail_fast ship"/>
    <edge id="23091392#0" from="249263689" to="249263690" priority="1" type="highway.service" numLanes="1" speed="8.94" shape="252.16,356.81 257.94,360.14 293.27,380.50 341.25,401.35" allow="pedestrian delivery bicycle"/>
    <edge id="23091392#1" from="249263690" to="249263691" priority="1" type="highway.service" numLanes="1" speed="8.94" allow="pedestrian delivery bicycle"/>
    <edge id="23091393#0" from="249263691" to="249263698" priority="3" type="highway.residential" numLanes="1" speed="8.94" shape="412.47,425.87 425.10,411.67 432.25,404.23 448.83,386.05" disallow="tram rail_urban rail rail_electric rail_fast ship"/>
    <edge id="23091393#1" from="249263698" to="249263696" priority="3" type="highway.residential" numLanes="1" speed="8.94" disallow="tram rail_urban rail rail_electric rail_fast ship"/>
    <edge id="23091393#2" from="249263696" to="249263692" priority="3" type="highway.residential" numLanes="1" speed="8.94" disallow="tram rail_urban rail rail_electric rail_fast ship"/>
    <edge id="23091394#0" from="249205827" to="249263693" priority="3" type="highway.residential" numLanes="1" speed="8.94" disallow="tram rail_urban rail rail_electric rail_fast ship"/>
    <edge id="23091394#1" from="249263693" to="249263694" priority="3" type="highway.residential" numLanes="1" speed="8.94" disallow="tram rail_urban rail rail_electric rail_fast ship"/>