<?xml version="1.0" encoding="UTF-8"?>

<!-- generated on 2024-04-04 10:37:53 by Eclipse SUMO netconvert Version 1.19.0
<configuration xmlns:xsi="http://www.w3.org/2001/XMLSchema-instance" xsi:noNamespaceSchemaLocation="http://sumo.dlr.de/xsd/netconvertConfiguration.xsd">

    <input>
        <osm-files value="/Users/shripal/Documents/Study/PathFinding/osm_sumo_final/LS90BT.osm"/>
    </input>

    <output>
        <output-file value="./sumo_network.net.xml"/>
        <plain-output-prefix value="./osm_net"/>
    </output>

    <projection>
        <proj.utm value="true"/>
    </projection>

    <formats>
        <osm.all-attributes value="false"/>
    </formats>

</configuration>
-->

<net version="1.16" junctionCornerDetail="5" limitTurnSpeed="5.50" xmlns:xsi="http://www.w3.org/2001/XMLSchema-instance" xsi:noNamespaceSchemaLocation="http://sumo.dlr.de/xsd/net_file.xsd">

    <location netOffset="-597344.87,-5960790.54" convBoundary="0.00,0.00,571.58,506.79" origBoundary="-1.522307,53.786524,-1.513627,53.791074" projParameter="+proj=utm +zone=30 +ellps=WGS84 +datum=WGS84 +units=m +no_defs"/>

    <type id="highway.cycleway" priority="1" numLanes="1" speed="5.56" allow="bicycle" oneway="0" width="2.00"/>
    <type id="highway.footway" priority="1" numLanes="1" speed="2.78" allow="pedestrian" oneway="1" width="2.00"/>
    <type id="highway.living_street" priority="2" numLanes="1" speed="2.78" disallow="tram rail_urban rail rail_electric rail_fast ship" oneway="0"/>
    <type id="highway.path" priority="1" numLanes="1" speed="5.56" allow="pedestrian bicycle" oneway="0" width="2.00"/>
    <type id="highway.pedestrian" priority="1" numLanes="1" speed="2.78" allow="pedestrian" oneway="1" width="2.00"/>
    <type id="highway.residential" priority="3" numLanes="1" speed="13.89" disallow="tram rail_urban rail rail_electric rail_fast ship" oneway="0"/>
    <type id="highway.service" priority="1" numLanes="1" speed="5.56" allow="pedestrian delivery bicycle" oneway="0"/>
    <type id="highway.tertiary" priority="10" numLanes="1" speed="22.22" disallow="tram rail_urban rail rail_electric rail_fast ship" oneway="0"/>
    <type id="highway.unclassified" priority="4" numLanes="1" speed="13.89" disallow="tram rail_urban rail rail_electric rail_fast ship" oneway="0"/>
    <type id="railway.rail" priority="20" numLanes="1" speed="44.44" allow="rail" oneway="1"/>

    <edge id=":1676360522_0" function="internal">
        <lane id=":1676360522_0_0" index="0" disallow="tram rail_urban rail rail_electric rail_fast ship" speed="5.38" length="6.11" shape="337.42,279.92 335.69,278.14 334.30,277.01 333.27,276.54 332.59,276.73"/>
    </edge>
    <edge id=":1676360522_1" function="internal">
        <lane id=":1676360522_1_0" index="0" disallow="tram rail_urban rail rail_electric rail_fast ship" speed="8.21" length="14.28" shape="337.42,279.92 335.18,276.66 334.42,273.45 335.16,270.31 337.39,267.23"/>
    </edge>
    <edge id=":1676360522_2" function="internal">
        <lane id=":1676360522_2_0" index="0" disallow="tram rail_urban rail rail_electric rail_fast ship" speed="3.65" length="4.67" shape="337.42,279.92 337.21,278.50 337.53,277.66 338.40,277.42 339.79,277.77"/>
    </edge>
    <edge id=":1676360522_3" function="internal">
        <lane id=":1676360522_3_0" index="0" disallow="tram rail_urban rail rail_electric rail_fast ship" speed="6.75" length="9.35" shape="339.68,269.47 338.24,271.47 337.79,273.52 338.30,275.62 339.79,277.77"/>
    </edge>
    <edge id=":1676360522_4" function="internal">
        <lane id=":1676360522_4_0" index="0" disallow="tram rail_urban rail rail_electric rail_fast ship" speed="8.94" length="10.14" shape="339.68,269.47 332.59,276.73"/>
    </edge>
    <edge id=":1676360522_5" function="internal">
        <lane id=":1676360522_5_0" index="0" disallow="tram rail_urban rail rail_electric rail_fast ship" speed="3.65" length="4.67" shape="339.68,269.47 338.27,269.77 337.42,269.50 337.12,268.65 337.39,267.23"/>
    </edge>
    <edge id=":1676360522_6" function="internal">
        <lane id=":1676360522_6_0" index="0" disallow="tram rail_urban rail rail_electric rail_fast ship" speed="8.94" length="10.14" shape="330.30,274.49 337.39,267.23"/>
    </edge>
    <edge id=":1676360522_7" function="internal">
        <lane id=":1676360522_7_0" index="0" disallow="tram rail_urban rail rail_electric rail_fast ship" speed="7.05" length="11.27" shape="330.30,274.49 332.16,273.40 334.36,273.58 336.91,275.04 339.79,277.77"/>
    </edge>
    <edge id=":1676360522_8" function="internal">
        <lane id=":1676360522_8_0" index="0" disallow="tram rail_urban rail rail_electric rail_fast ship" speed="3.65" length="4.67" shape="330.30,274.49 331.72,274.19 332.57,274.46 332.86,275.31 332.59,276.73"/>
    </edge>
    <edge id=":1887606714_0" function="internal">
        <lane id=":1887606714_0_0" index="0" allow="pedestrian bicycle" speed="2.89" length="2.92" width="2.00" shape="84.15,140.54 83.25,140.50 82.78,140.20 82.73,139.65 83.12,138.83"/>
    </edge>
    <edge id=":2055250779_0" function="internal">
        <lane id=":2055250779_0_0" index="0" disallow="tram rail_urban rail rail_electric rail_fast ship" speed="3.65" length="4.67" shape="163.41,116.47 162.27,115.59 161.92,114.77 162.37,114.00 163.62,113.28"/>
    </edge>
    <edge id=":2055250782_0" function="internal">
        <lane id=":2055250782_0_0" index="0" allow="pedestrian delivery bicycle" speed="5.10" length="5.33" shape="233.42,129.22 232.09,128.81 230.93,128.97 229.96,129.72 229.17,131.05"/>
    </edge>
    <edge id=":2055250782_1" function="internal">
        <lane id=":2055250782_1_0" index="0" disallow="tram rail_urban rail rail_electric rail_fast ship" speed="13.89" length="9.73" shape="233.42,129.22 230.82,127.96 229.00,127.20 227.11,126.59 224.33,125.83"/>
    </edge>
    <edge id=":2055250782_2" function="internal">
        <lane id=":2055250782_2_0" index="0" disallow="tram rail_urban rail rail_electric rail_fast ship" speed="13.89" length="10.35" shape="225.16,122.74 228.08,123.54 230.12,124.20 232.11,125.03 234.83,126.34"/>
    </edge>
    <edge id=":2055250782_3" function="internal">
        <lane id=":2055250782_3_0" index="0" allow="pedestrian delivery bicycle" speed="6.76" length="3.45" shape="225.16,122.74 227.97,123.95 228.23,124.24"/>
    </edge>
    <edge id=":2055250782_7" function="internal">
        <lane id=":2055250782_7_0" index="0" allow="pedestrian delivery bicycle" speed="6.76" length="7.45" shape="228.23,124.24 229.57,125.73 229.97,128.10 229.17,131.05"/>
    </edge>
    <edge id=":2055250782_4" function="internal">
        <lane id=":2055250782_4_0" index="0" allow="pedestrian delivery bicycle" speed="4.90" length="5.18" shape="226.23,129.78 226.61,128.38 226.42,127.25 225.66,126.40 224.33,125.83"/>
    </edge>
    <edge id=":2055250782_5" function="internal">
        <lane id=":2055250782_5_0" index="0" allow="pedestrian delivery bicycle" speed="6.90" length="10.67" shape="226.23,129.78 227.79,127.19 229.75,125.76 232.09,125.48 234.83,126.34"/>
    </edge>
    <edge id=":2055250782_6" function="internal">
        <lane id=":2055250782_6_0" index="0" allow="pedestrian delivery bicycle" speed="3.65" length="4.67" shape="226.23,129.78 227.44,128.99 228.34,128.94 228.91,129.63 229.17,131.05"/>
    </edge>
    <edge id=":2055250784_0" function="internal">
        <lane id=":2055250784_0_0" index="0" disallow="tram rail_urban rail rail_electric rail_fast ship" speed="13.89" length="0.62" shape="265.82,149.42 265.74,149.26 265.67,149.15 265.58,149.06 265.44,148.94"/>
    </edge>
    <edge id=":2055250784_1" function="internal">
        <lane id=":2055250784_1_0" index="0" disallow="tram rail_urban rail rail_electric rail_fast ship" speed="9.29" length="1.87" shape="267.56,146.54 267.97,146.91 268.23,147.19 268.43,147.51 268.69,148.00"/>
    </edge>
    <edge id=":2055250787_0" function="internal">
        <lane id=":2055250787_0_0" index="0" allow="pedestrian bicycle" speed="6.22" length="8.10" width="2.00" shape="272.83,185.62 272.38,184.16 271.15,183.09 269.13,182.41 266.34,182.11"/>
    </edge>
    <edge id=":2055250787_1" function="internal">
        <lane id=":2055250787_1_0" index="0" allow="pedestrian bicycle" speed="9.72" length="12.18" width="2.00" shape="272.83,185.62 272.14,173.46"/>
    </edge>
    <edge id=":2055250787_2" function="internal">
        <lane id=":2055250787_2_0" index="0" allow="pedestrian bicycle" speed="7.04" length="11.71" width="2.00" shape="272.83,185.62 273.24,182.79 274.71,180.80 277.25,179.66 280.84,179.37"/>
    </edge>
    <edge id=":2055250787_3" function="internal">
        <lane id=":2055250787_3_0" index="0" allow="pedestrian bicycle" speed="2.89" length="2.92" width="2.00" shape="272.83,185.62 273.30,184.85 273.79,184.59 274.30,184.82 274.83,185.55"/>
    </edge>
    <edge id=":2055250787_4" function="internal">
        <lane id=":2055250787_4_0" index="0" allow="pedestrian bicycle" speed="5.84" length="7.43" width="2.00" shape="280.73,182.57 278.11,182.69 276.25,183.22 275.15,184.17 274.83,185.55"/>
    </edge>
    <edge id=":2055250787_5" function="internal">
        <lane id=":2055250787_5_0" index="0" disallow="tram rail_urban rail rail_electric rail_fast ship" speed="8.94" length="14.40" shape="280.73,182.57 266.34,182.11"/>
    </edge>
    <edge id=":2055250787_6" function="internal">
        <lane id=":2055250787_6_0" index="0" disallow="tram rail_urban rail rail_electric rail_fast ship" speed="8.07" length="4.03" shape="280.73,182.57 276.93,181.90 276.79,181.80"/>
    </edge>
    <edge id=":2055250787_7" function="internal">
        <lane id=":2055250787_7_0" index="0" disallow="tram rail_urban rail rail_electric rail_fast ship" speed="3.65" length="1.44" shape="280.73,182.57 279.56,181.73"/>
    </edge>
    <edge id=":2055250787_16" function="internal">
        <lane id=":2055250787_16_0" index="0" disallow="tram rail_urban rail rail_electric rail_fast ship" speed="8.07" length="10.19" shape="276.79,181.80 274.24,180.15 272.64,177.34 272.14,173.46"/>
    </edge>
    <edge id=":2055250787_17" function="internal">
        <lane id=":2055250787_17_0" index="0" disallow="tram rail_urban rail rail_electric rail_fast ship" speed="3.65" length="3.23" shape="279.56,181.73 279.19,180.92 279.61,180.13 280.84,179.37"/>
    </edge>
    <edge id=":2055250787_8" function="internal">
        <lane id=":2055250787_8_0" index="0" disallow="tram rail_urban rail rail_electric rail_fast ship" speed="6.59" length="9.14" shape="275.34,173.49 275.66,176.00 276.68,177.81 278.41,178.94 280.84,179.37"/>
    </edge>
    <edge id=":2055250787_9" function="internal">
        <lane id=":2055250787_9_0" index="0" allow="pedestrian bicycle" speed="9.72" length="12.06" width="2.00" shape="275.34,173.49 274.83,185.55"/>
    </edge>
    <edge id=":2055250787_10" function="internal">
        <lane id=":2055250787_10_0" index="0" disallow="tram rail_urban rail rail_electric rail_fast ship" speed="7.96" length="14.27" shape="275.34,173.49 274.74,177.37 273.04,180.10 270.24,181.68 266.34,182.11"/>
    </edge>
    <edge id=":2055250787_11" function="internal">
        <lane id=":2055250787_11_0" index="0" disallow="tram rail_urban rail rail_electric rail_fast ship" speed="3.65" length="4.67" shape="275.34,173.49 274.52,174.69 273.72,175.08 272.92,174.67 272.14,173.46"/>
    </edge>
    <edge id=":2055250787_12" function="internal">
        <lane id=":2055250787_12_0" index="0" disallow="tram rail_urban rail rail_electric rail_fast ship" speed="6.46" length="9.03" shape="266.44,178.91 268.91,178.64 270.68,177.64 271.76,175.91 272.14,173.46"/>
    </edge>
    <edge id=":2055250787_13" function="internal">
        <lane id=":2055250787_13_0" index="0" disallow="tram rail_urban rail rail_electric rail_fast ship" speed="8.94" length="14.40" shape="266.44,178.91 280.84,179.37"/>
    </edge>
    <edge id=":2055250787_14" function="internal">
        <lane id=":2055250787_14_0" index="0" allow="pedestrian bicycle" speed="7.25" length="4.26" width="2.00" shape="266.44,178.91 269.24,179.55 270.45,180.24"/>
    </edge>
    <edge id=":2055250787_15" function="internal">
        <lane id=":2055250787_15_0" index="0" disallow="tram rail_urban rail rail_electric rail_fast ship" speed="3.65" length="1.44" shape="266.44,178.91 267.62,179.75"/>
    </edge>
    <edge id=":2055250787_18" function="internal">
        <lane id=":2055250787_18_0" index="0" allow="pedestrian bicycle" speed="7.25" length="7.15" width="2.00" shape="270.45,180.24 271.93,181.08 273.97,183.18 274.83,185.55"/>
    </edge>
    <edge id=":2055250787_19" function="internal">
        <lane id=":2055250787_19_0" index="0" disallow="tram rail_urban rail rail_electric rail_fast ship" speed="3.65" length="3.23" shape="267.62,179.75 267.99,180.56 267.56,181.35 266.34,182.11"/>
    </edge>
    <edge id=":2055250795_0" function="internal">
        <lane id=":2055250795_0_0" index="0" disallow="tram rail_urban rail rail_electric rail_fast ship" speed="3.65" length="4.67" shape="91.16,376.91 89.80,376.41 89.23,375.73 89.43,374.86 90.41,373.80"/>
    </edge>
    <edge id=":2055250797_0" function="internal">
        <lane id=":2055250797_0_0" index="0" disallow="tram rail_urban rail rail_electric rail_fast ship" speed="3.65" length="4.67" shape="127.14,393.29 126.44,394.56 125.68,395.03 124.85,394.70 123.95,393.57"/>
    </edge>
    <edge id=":2058729100_0" function="internal">
        <lane id=":2058729100_0_0" index="0" disallow="tram rail_urban rail rail_electric rail_fast ship" speed="13.89" length="4.07" shape="258.71,143.00 257.80,142.20 257.16,141.67 256.48,141.20 255.45,140.58"/>
    </edge>
    <edge id=":2058729100_1" function="internal">
        <lane id=":2058729100_1_0" index="0" disallow="tram rail_urban rail rail_electric rail_fast ship" speed="13.89" length="4.69" shape="257.06,137.82 258.26,138.53 259.04,139.07 259.78,139.68 260.83,140.60"/>
    </edge>
    <edge id=":2068163161_0" function="internal">
        <lane id=":2068163161_0_0" index="0" disallow="tram rail_urban rail rail_electric rail_fast ship" speed="8.94" length="4.39" shape="366.08,232.04 362.75,229.17"/>
    </edge>
    <edge id=":2068163161_1" function="internal">
        <lane id=":2068163161_1_0" index="0" allow="pedestrian delivery bicycle" speed="4.40" length="3.78" shape="369.40,226.42 368.46,227.47 367.94,228.36 367.84,229.07 368.16,229.61"/>
    </edge>
    <edge id=":2068163161_2" function="internal">
        <lane id=":2068163161_2_0" index="0" allow="pedestrian delivery bicycle" speed="6.25" length="7.77" shape="369.40,226.42 367.27,228.29 365.45,229.38 363.95,229.67 362.75,229.17"/>
    </edge>
    <edge id=":2068163161_3" function="internal">
        <lane id=":2068163161_3_0" index="0" disallow="tram rail_urban rail rail_electric rail_fast ship" speed="8.94" length="4.38" shape="364.84,226.75 368.16,229.61"/>
    </edge>
    <edge id=":2068163166_0" function="internal">
        <lane id=":2068163166_0_0" index="0" disallow="tram rail_urban rail rail_electric rail_fast ship" speed="8.94" length="6.77" shape="408.84,271.01 403.85,266.44"/>
    </edge>
    <edge id=":2068163166_1" function="internal">
        <lane id=":2068163166_1_0" index="0" allow="pedestrian delivery bicycle" speed="7.25" length="8.43" shape="408.84,271.01 408.69,269.57 409.10,266.99 409.67,264.34 410.04,262.73"/>
    </edge>
    <edge id=":2068163166_2" function="internal">
        <lane id=":2068163166_2_0" index="0" allow="pedestrian delivery bicycle" speed="4.67" length="5.91" shape="406.01,264.08 407.47,265.10 408.63,265.22 409.49,264.43 410.04,262.73"/>
    </edge>
    <edge id=":2068163166_3" function="internal">
        <lane id=":2068163166_3_0" index="0" disallow="tram rail_urban rail rail_electric rail_fast ship" speed="8.94" length="6.77" shape="406.01,264.08 411.00,268.65"/>
    </edge>
    <edge id=":2068163205_0" function="internal">
        <lane id=":2068163205_0_0" index="0" allow="pedestrian bicycle" speed="2.89" length="2.92" width="2.00" shape="0.61,419.42 -0.29,419.48 -0.79,419.24 -0.90,418.69 -0.61,417.84"/>
    </edge>
    <edge id=":249205822_0" function="internal">
        <lane id=":249205822_0_0" index="0" allow="pedestrian delivery bicycle" speed="4.99" length="5.21" shape="90.17,190.74 89.53,189.41 88.64,188.65 87.51,188.45 86.14,188.82"/>
    </edge>
    <edge id=":249205822_1" function="internal">
        <lane id=":249205822_1_0" index="0" allow="pedestrian delivery bicycle" speed="6.77" length="10.81" shape="90.17,190.74 89.66,187.77 90.26,185.46 91.99,183.81 94.84,182.83"/>
    </edge>
    <edge id=":249205822_2" function="internal">
        <lane id=":249205822_2_0" index="0" allow="pedestrian delivery bicycle" speed="3.65" length="4.67" shape="90.17,190.74 90.56,189.35 91.20,188.72 92.08,188.85 93.21,189.75"/>
    </edge>
    <edge id=":249205822_3" function="internal">
        <lane id=":249205822_3_0" index="0" allow="pedestrian delivery bicycle" speed="4.92" length="5.16" shape="95.44,185.97 94.08,186.44 93.26,187.23 92.97,188.33 93.21,189.75"/>
    </edge>
    <edge id=":249205822_4" function="internal">
        <lane id=":249205822_4_0" index="0" disallow="tram rail_urban rail rail_electric rail_fast ship" speed="8.94" length="9.77" shape="95.44,185.97 92.60,186.53 90.67,187.01 88.80,187.69 86.14,188.82"/>
    </edge>
    <edge id=":249205822_5" function="internal">
        <lane id=":249205822_5_0" index="0" disallow="tram rail_urban rail rail_electric rail_fast ship" speed="8.94" length="10.46" shape="84.87,185.88 87.67,184.70 89.74,183.96 91.86,183.42 94.84,182.83"/>
    </edge>
    <edge id=":249205822_6" function="internal">
        <lane id=":249205822_6_0" index="0" allow="pedestrian delivery bicycle" speed="6.82" length="3.38" shape="84.87,185.88 87.72,185.12 88.15,185.19"/>
    </edge>
    <edge id=":249205822_7" function="internal">
        <lane id=":249205822_7_0" index="0" allow="pedestrian delivery bicycle" speed="6.82" length="7.34" shape="88.15,185.19 90.06,185.51 91.89,187.05 93.21,189.75"/>
    </edge>
    <edge id=":249205823_0" function="internal">
        <lane id=":249205823_0_0" index="0" disallow="tram rail_urban rail rail_electric rail_fast ship" speed="8.54" length="11.59" shape="116.30,191.19 114.50,188.05 112.49,185.86 110.26,184.61 107.83,184.30"/>
    </edge>
    <edge id=":249205823_1" function="internal">
        <lane id=":249205823_1_0" index="0" disallow="tram rail_urban rail rail_electric rail_fast ship" speed="7.46" length="16.15" shape="116.30,191.19 114.90,186.67 115.53,183.42 118.21,181.44 122.94,180.72"/>
    </edge>
    <edge id=":249205823_2" function="internal">
        <lane id=":249205823_2_0" index="0" disallow="tram rail_urban rail rail_electric rail_fast ship" speed="3.65" length="4.67" shape="116.30,191.19 116.51,189.76 117.07,189.06 117.96,189.08 119.20,189.82"/>
    </edge>
    <edge id=":249205823_3" function="internal">
        <lane id=":249205823_3_0" index="0" disallow="tram rail_urban rail rail_electric rail_fast ship" speed="5.76" length="9.17" shape="122.94,183.92 120.26,184.29 118.74,185.40 118.39,187.24 119.20,189.82"/>
    </edge>
    <edge id=":249205823_4" function="internal">
        <lane id=":249205823_4_0" index="0" disallow="tram rail_urban rail rail_electric rail_fast ship" speed="8.94" length="15.11" shape="122.94,183.92 107.83,184.30"/>
    </edge>
    <edge id=":249205823_5" function="internal">
        <lane id=":249205823_5_0" index="0" disallow="tram rail_urban rail rail_electric rail_fast ship" speed="3.66" length="1.44" shape="122.94,183.92 121.74,183.12"/>
    </edge>
    <edge id=":249205823_9" function="internal">
        <lane id=":249205823_9_0" index="0" disallow="tram rail_urban rail rail_electric rail_fast ship" speed="3.66" length="3.23" shape="121.74,183.12 121.34,182.32 121.74,181.52 122.94,180.72"/>
    </edge>
    <edge id=":249205823_6" function="internal">
        <lane id=":249205823_6_0" index="0" disallow="tram rail_urban rail rail_electric rail_fast ship" speed="8.94" length="15.31" shape="107.63,181.10 122.94,180.72"/>
    </edge>
    <edge id=":249205823_7" function="internal">
        <lane id=":249205823_7_0" index="0" disallow="tram rail_urban rail rail_electric rail_fast ship" speed="8.94" length="3.85" shape="107.63,181.10 111.07,181.48 111.42,181.66"/>
    </edge>
    <edge id=":249205823_8" function="internal">
        <lane id=":249205823_8_0" index="0" disallow="tram rail_urban rail rail_electric rail_fast ship" speed="3.65" length="1.44" shape="107.63,181.10 108.88,181.83"/>
    </edge>
    <edge id=":249205823_10" function="internal">
        <lane id=":249205823_10_0" index="0" disallow="tram rail_urban rail rail_electric rail_fast ship" speed="8.94" length="11.57" shape="111.42,181.66 114.14,183.06 116.85,185.84 119.20,189.82"/>
    </edge>
    <edge id=":249205823_11" function="internal">
        <lane id=":249205823_11_0" index="0" disallow="tram rail_urban rail rail_electric rail_fast ship" speed="3.65" length="3.23" shape="108.88,181.83 109.33,182.60 108.98,183.42 107.83,184.30"/>
    </edge>
    <edge id=":249205826_0" function="internal">
        <lane id=":249205826_0_0" index="0" disallow="tram rail_urban rail rail_electric rail_fast ship" speed="6.66" length="9.28" shape="375.65,240.57 373.60,239.19 371.56,238.81 369.51,239.41 367.47,241.01"/>
    </edge>
    <edge id=":249205826_1" function="internal">
        <lane id=":249205826_1_0" index="0" disallow="tram rail_urban rail rail_electric rail_fast ship" speed="8.94" length="12.63" shape="375.65,240.57 366.23,232.17"/>
    </edge>
    <edge id=":249205826_2" function="internal">
        <lane id=":249205826_2_0" index="0" disallow="tram rail_urban rail rail_electric rail_fast ship" speed="3.65" length="1.44" shape="375.65,240.57 375.31,239.17"/>
    </edge>
    <edge id=":249205826_9" function="internal">
        <lane id=":249205826_9_0" index="0" disallow="tram rail_urban rail rail_electric rail_fast ship" speed="3.65" length="3.23" shape="375.31,239.17 375.55,238.31 376.39,237.99 377.81,238.22"/>
    </edge>
    <edge id=":249205826_3" function="internal">
        <lane id=":249205826_3_0" index="0" disallow="tram rail_urban rail rail_electric rail_fast ship" speed="8.94" length="12.73" shape="368.32,229.74 377.81,238.22"/>
    </edge>
    <edge id=":249205826_4" function="internal">
        <lane id=":249205826_4_0" index="0" disallow="tram rail_urban rail rail_electric rail_fast ship" speed="7.52" length="3.36" shape="368.32,229.74 370.33,232.23 370.36,232.39"/>
    </edge>
    <edge id=":249205826_5" function="internal">
        <lane id=":249205826_5_0" index="0" disallow="tram rail_urban rail rail_electric rail_fast ship" speed="3.65" length="1.44" shape="368.32,229.74 368.70,231.13"/>
    </edge>
    <edge id=":249205826_10" function="internal">
        <lane id=":249205826_10_0" index="0" disallow="tram rail_urban rail rail_electric rail_fast ship" speed="7.52" length="9.66" shape="370.36,232.39 370.86,234.93 369.91,237.86 367.47,241.01"/>
    </edge>
    <edge id=":249205826_11" function="internal">
        <lane id=":249205826_11_0" index="0" disallow="tram rail_urban rail rail_electric rail_fast ship" speed="3.65" length="3.23" shape="368.70,231.13 368.48,232.00 367.66,232.34 366.23,232.17"/>
    </edge>
    <edge id=":249205826_6" function="internal">
        <lane id=":249205826_6_0" index="0" disallow="tram rail_urban rail rail_electric rail_fast ship" speed="5.92" length="7.65" shape="365.18,238.78 366.74,236.83 367.43,235.08 367.26,233.53 366.23,232.17"/>
    </edge>
    <edge id=":249205826_7" function="internal">
        <lane id=":249205826_7_0" index="0" disallow="tram rail_urban rail rail_electric rail_fast ship" speed="8.13" length="14.32" shape="365.18,238.78 368.31,236.34 371.47,235.43 374.63,236.06 377.81,238.22"/>
    </edge>
    <edge id=":249205826_8" function="internal">
        <lane id=":249205826_8_0" index="0" disallow="tram rail_urban rail rail_electric rail_fast ship" speed="3.65" length="4.67" shape="365.18,238.78 366.59,238.48 367.44,238.75 367.73,239.59 367.47,241.01"/>
    </edge>
    <edge id=":249205827_0" function="internal">
        <lane id=":249205827_0_0" index="0" disallow="tram rail_urban rail rail_electric rail_fast ship" speed="6.49" length="9.08" shape="445.02,304.63 443.03,303.15 441.05,302.66 439.07,303.19 437.09,304.72"/>
    </edge>
    <edge id=":249205827_1" function="internal">
        <lane id=":249205827_1_0" index="0" disallow="tram rail_urban rail rail_electric rail_fast ship" speed="8.94" length="14.47" shape="445.02,304.63 434.58,294.62"/>
    </edge>
    <edge id=":249205827_2" function="internal">
        <lane id=":249205827_2_0" index="0" disallow="tram rail_urban rail rail_electric rail_fast ship" speed="3.65" length="1.44" shape="445.02,304.63 444.74,303.22"/>
    </edge>
    <edge id=":249205827_9" function="internal">
        <lane id=":249205827_9_0" index="0" disallow="tram rail_urban rail rail_electric rail_fast ship" speed="3.65" length="3.23" shape="444.74,303.22 445.02,302.37 445.87,302.09 447.28,302.38"/>
    </edge>
    <edge id=":249205827_3" function="internal">
        <lane id=":249205827_3_0" index="0" disallow="tram rail_urban rail rail_electric rail_fast ship" speed="8.94" length="14.61" shape="436.74,292.26 447.28,302.38"/>
    </edge>
    <edge id=":249205827_4" function="internal">
        <lane id=":249205827_4_0" index="0" disallow="tram rail_urban rail rail_electric rail_fast ship" speed="7.95" length="4.26" shape="436.74,292.26 439.23,295.31 439.32,295.62"/>
    </edge>
    <edge id=":249205827_5" function="internal">
        <lane id=":249205827_5_0" index="0" disallow="tram rail_urban rail rail_electric rail_fast ship" speed="3.65" length="1.44" shape="436.74,292.26 437.08,293.66"/>
    </edge>
    <edge id=":249205827_10" function="internal">
        <lane id=":249205827_10_0" index="0" disallow="tram rail_urban rail rail_electric rail_fast ship" speed="7.95" length="10.05" shape="439.32,295.62 440.12,298.40 439.41,301.53 437.09,304.72"/>
    </edge>
    <edge id=":249205827_11" function="internal">
        <lane id=":249205827_11_0" index="0" disallow="tram rail_urban rail rail_electric rail_fast ship" speed="3.65" length="3.23" shape="437.08,293.66 436.84,294.52 436.00,294.84 434.58,294.62"/>
    </edge>
    <edge id=":249205827_6" function="internal">
        <lane id=":249205827_6_0" index="0" disallow="tram rail_urban rail rail_electric rail_fast ship" speed="6.44" length="9.03" shape="434.79,302.48 436.26,300.47 436.71,298.49 436.15,296.54 434.58,294.62"/>
    </edge>
    <edge id=":249205827_7" function="internal">
        <lane id=":249205827_7_0" index="0" disallow="tram rail_urban rail rail_electric rail_fast ship" speed="7.99" length="14.29" shape="434.79,302.48 437.91,300.08 441.03,299.26 444.16,300.03 447.28,302.38"/>
    </edge>
    <edge id=":249205827_8" function="internal">
        <lane id=":249205827_8_0" index="0" disallow="tram rail_urban rail rail_electric rail_fast ship" speed="3.65" length="4.67" shape="434.79,302.48 436.20,302.18 437.06,302.45 437.35,303.30 437.09,304.72"/>
    </edge>
    <edge id=":249205837_0" function="internal">
        <lane id=":249205837_0_0" index="0" allow="pedestrian bicycle" speed="7.25" length="3.09" width="2.00" shape="154.66,304.72 153.92,305.24 153.33,305.48 152.74,305.72 151.99,306.24"/>
    </edge>
    <edge id=":249205837_1" function="internal">
        <lane id=":249205837_1_0" index="0" disallow="tram rail_urban rail rail_electric rail_fast ship" speed="3.65" length="1.33" shape="154.66,304.72 153.34,304.89"/>
    </edge>
    <edge id=":249205837_3" function="internal">
        <lane id=":249205837_3_0" index="0" disallow="tram rail_urban rail rail_electric rail_fast ship" speed="3.65" length="3.34" shape="153.34,304.89 153.23,304.91 152.40,304.57 152.18,303.70 152.56,302.31"/>
    </edge>
    <edge id=":249205837_2" function="internal">
        <lane id=":249205837_2_0" index="0" allow="pedestrian bicycle" speed="7.25" length="3.06" width="2.00" shape="150.69,304.72 151.31,304.06 151.63,303.52 151.94,302.97 152.56,302.31"/>
    </edge>
    <edge id=":249205842_0" function="internal">
        <lane id=":249205842_0_0" index="0" disallow="tram rail_urban rail rail_electric rail_fast ship" speed="8.94" length="9.48" shape="167.21,293.70 160.10,299.97"/>
    </edge>
    <edge id=":249205842_1" function="internal">
        <lane id=":249205842_1_0" index="0" allow="pedestrian delivery bicycle" speed="7.12" length="3.12" shape="167.21,293.70 164.99,295.13 164.52,295.21"/>
    </edge>
    <edge id=":249205842_7" function="internal">
        <lane id=":249205842_7_0" index="0" allow="pedestrian delivery bicycle" speed="7.12" length="7.12" shape="164.52,295.21 162.73,295.52 160.42,294.87 158.06,293.18"/>
    </edge>
    <edge id=":249205842_2" function="internal">
        <lane id=":249205842_2_0" index="0" allow="pedestrian delivery bicycle" speed="5.38" length="5.42" shape="160.24,290.84 161.53,291.78 162.76,292.18 163.94,292.02 165.07,291.31"/>
    </edge>
    <edge id=":249205842_3" function="internal">
        <lane id=":249205842_3_0" index="0" allow="pedestrian delivery bicycle" speed="6.78" length="10.68" shape="160.24,290.84 162.10,293.15 162.70,295.44 162.03,297.72 160.10,299.97"/>
    </edge>
    <edge id=":249205842_4" function="internal">
        <lane id=":249205842_4_0" index="0" allow="pedestrian delivery bicycle" speed="3.65" length="4.67" shape="160.24,290.84 160.57,292.24 160.32,293.10 159.48,293.41 158.06,293.18"/>
    </edge>
    <edge id=":249205842_5" function="internal">
        <lane id=":249205842_5_0" index="0" allow="pedestrian delivery bicycle" speed="4.94" length="5.13" shape="157.99,297.56 158.92,296.48 159.24,295.39 158.95,294.29 158.06,293.18"/>
    </edge>
    <edge id=":249205842_6" function="internal">