<?xml version="1.0" encoding="UTF-8"?>

<!-- generated on 2024-04-04 10:37:53 by Eclipse SUMO netconvert Version 1.19.0
<configuration xmlns:xsi="http://www.w3.org/2001/XMLSchema-instance" xsi:noNamespaceSchemaLocation="http://sumo.dlr.de/xsd/netconvertConfiguration.xsd">

    <input>
        <osm-files value="/Users/shripal/Documents/Study/PathFinding/osm_sumo_final/LS90BT.osm"/>
    </input>

    <output>
        <output-file value="./sumo_network.net.xml"/>
        <plain-output-prefix value="./osm_net"/>
    </output>

    <projection>
        <proj.utm value="true"/>
    </projection>

    <formats>
        <osm.all-attributes value="false"/>
    </formats>

</configuration>
-->

<connections version="1.16" xmlns:xsi="http://www.w3.org/2001/XMLSchema-instance" xsi:noNamespaceSchemaLocation="http://sumo.dlr.de/xsd/connections_file.xsd">
    <connection from="-195024977" to="195024977" fromLane="0" toLane="0"/>

    <connection from="-195024981" to="352963640#0" fromLane="0" toLane="0"/>
    <connection from="-195024981" to="-619506570" fromLane="0" toLane="0"/>
    <connection from="-195024981" to="-23089283#3" fromLane="0" toLane="0"/>
    <connection from="-195024981" to="195024981" fromLane="0" toLane="0"/>

    <connection from="-23089283#0" to="23089283#0" fromLane="0" toLane="0"/>

    <connection from="-23089283#1" to="23089302" fromLane="0" toLane="0"/>
    <connection from="-23089283#1" to="-23089283#0" fromLane="0" toLane="0"/>

    <connection from="-23089283#2" to="23089303#0" fromLane="0" toLane="0"/>
    <connection from="-23089283#2" to="-23089283#1" fromLane="0" toLane="0"/>
    <connection from="-23089283#2" to="23089283#2" fromLane="0" toLane="0"/>

    <connection from="-23089283#3" to="-286772940#2" fromLane="0" toLane="0"/>
    <connection from="-23089283#3" to="-23089283#2" fromLane="0" toLane="0"/>
    <connection from="-23089283#3" to="23089283#3" fromLane="0" toLane="0"/>

    <connection from="-23089287" to="-619506573#1" fromLane="0" toLane="0" keepClear="0"/>

    <connection from="-23089302" to="-23089283#0" fromLane="0" toLane="0"/>
    <connection from="-23089302" to="23089283#1" fromLane="0" toLane="0"/>
    <connection from="-23089302" to="23089302" fromLane="0" toLane="0"/>

    <connection from="-23089303#0" to="-23089283#1" fromLane="0" toLane="0"/>
    <connection from="-23089303#0" to="23089283#2" fromLane="0" toLane="0"/>
    <connection from="-23089303#0" to="23089303#0" fromLane="0" toLane="0"/>

    <connection from="-23089303#1" to="-23089303#0" fromLane="0" toLane="0"/>
    <connection from="-23089303#1" to="619506568#0" fromLane="0" toLane="0"/>

    <connection from="-23089303#2" to="-23089303#1" fromLane="0" toLane="0"/>
    <connection from="-23089303#2" to="23094442" fromLane="0" toLane="0"/>
    <connection from="-23089303#2" to="23089303#2" fromLane="0" toLane="0"/>

    <connection from="-23089312#0" to="619506573#0" fromLane="0" toLane="0"/>
    <connection from="-23089312#0" to="-954908738" fromLane="0" toLane="0"/>

    <connection from="-23089312#1" to="-23089312#0" fromLane="0" toLane="0"/>
    <connection from="-23089312#1" to="-619506571" fromLane="0" toLane="0"/>
    <connection from="-23089312#1" to="23089312#1" fromLane="0" toLane="0"/>

    <connection from="-23089314#0" to="-619506569#4" fromLane="0" toLane="0"/>

    <connection from="-23089314#1" to="619506571" fromLane="0" toLane="0"/>
    <connection from="-23089314#1" to="-23089314#0" fromLane="0" toLane="0"/>
    <connection from="-23089314#1" to="23089314#1" fromLane="0" toLane="0"/>

    <connection from="-23089315" to="-619506572#3" fromLane="0" toLane="0"/>
    <connection from="-23089315" to="619506572#4" fromLane="0" toLane="0"/>
    <connection from="-23089315" to="23089315" fromLane="0" toLane="0"/>

    <connection from="-23089316" to="-619506572#2" fromLane="0" toLane="0"/>
    <connection from="-23089316" to="619506572#3" fromLane="0" toLane="0"/>
    <connection from="-23089316" to="23089316" fromLane="0" toLane="0"/>

    <connection from="-23089317" to="-619506572#0" fromLane="0" toLane="0"/>
    <connection from="-23089317" to="-23091395#2" fromLane="0" toLane="0"/>
    <connection from="-23089317" to="619506572#1" fromLane="0" toLane="0"/>
    <connection from="-23089317" to="23089317" fromLane="0" toLane="0"/>

    <connection from="-23091391#0" to="-969773707" fromLane="0" toLane="0"/>
    <connection from="-23091391#0" to="23091391#0" fromLane="0" toLane="0"/>

    <connection from="-23091391#1" to="-23091391#0" fromLane="0" toLane="0"/>
    <connection from="-23091391#1" to="23091401" fromLane="0" toLane="0"/>
    <connection from="-23091391#1" to="23091391#1" fromLane="0" toLane="0"/>

    <connection from="-23091391#2" to="-23091391#1" fromLane="0" toLane="0"/>
    <connection from="-23091391#2" to="23091402#0" fromLane="0" toLane="0"/>
    <connection from="-23091391#2" to="23091391#2" fromLane="0" toLane="0"/>

    <connection from="-23091391#3" to="-23091391#2" fromLane="0" toLane="0"/>
    <connection from="-23091391#3" to="-23091403" fromLane="0" toLane="0"/>
    <connection from="-23091391#3" to="23091391#3" fromLane="0" toLane="0"/>

    <connection from="-23091391#4" to="23091394#3" fromLane="0" toLane="0"/>
    <connection from="-23091391#4" to="-23091391#3" fromLane="0" toLane="0"/>
    <connection from="-23091391#4" to="-23091394#2" fromLane="0" toLane="0"/>
    <connection from="-23091391#4" to="23091391#4" fromLane="0" toLane="0"/>

    <connection from="-23091391#5" to="-23091391#4" fromLane="0" toLane="0"/>
    <connection from="-23091391#5" to="23091399" fromLane="0" toLane="0"/>
    <connection from="-23091391#5" to="23091391#5" fromLane="0" toLane="0"/>

    <connection from="-23091391#6" to="-23091391#5" fromLane="0" toLane="0"/>
    <connection from="-23091391#6" to="23091398" fromLane="0" toLane="0"/>
    <connection from="-23091391#6" to="23091391#6" fromLane="0" toLane="0"/>

    <connection from="-23091392#0" to="619506572#8" fromLane="0" toLane="0"/>
    <connection from="-23091392#0" to="-619506572#7" fromLane="0" toLane="0"/>
    <connection from="-23091392#0" to="23091392#0" fromLane="0" toLane="0"/>

    <connection from="-23091392#1" to="-23091392#0" fromLane="0" toLane="0"/>
    <connection from="-23091392#1" to="-23091394#3" fromLane="0" toLane="0"/>
    <connection from="-23091392#1" to="23091392#1" fromLane="0" toLane="0"/>

    <connection from="-23091393#0" to="-23091392#1" fromLane="0" toLane="0"/>
    <connection from="-23091393#0" to="23091393#0" fromLane="0" toLane="0"/>

    <connection from="-23091393#1" to="-23091396#0" fromLane="0" toLane="0"/>
    <connection from="-23091393#1" to="-23091393#0" fromLane="0" toLane="0"/>
    <connection from="-23091393#1" to="23091396#1" fromLane="0" toLane="0"/>
    <connection from="-23091393#1" to="23091393#1" fromLane="0" toLane="0"/>

    <connection from="-23091393#2" to="-23091395#0" fromLane="0" toLane="0"/>
    <connection from="-23091393#2" to="-23091393#1" fromLane="0" toLane="0"/>
    <connection from="-23091393#2" to="23091395#1" fromLane="0" toLane="0"/>
    <connection from="-23091393#2" to="23091393#2" fromLane="0" toLane="0"/>

    <connection from="-23091394#0" to="-352963640#6" fromLane="0" toLane="0"/>
    <connection from="-23091394#0" to="352963640#7" fromLane="0" toLane="0"/>
    <connection from="-23091394#0" to="23091394#0" fromLane="0" toLane="0"/>

    <connection from="-23091394#1" to="23091395#2" fromLane="0" toLane="0"/>
    <connection from="-23091394#1" to="-23091394#0" fromLane="0" toLane="0"/>
    <connection from="-23091394#1" to="-23091395#1" fromLane="0" toLane="0"/>
    <connection from="-23091394#1" to="23091394#1" fromLane="0" toLane="0"/>

    <connection from="-23091394#2" to="23091396#4" fromLane="0" toLane="0"/>
    <connection from="-23091394#2" to="-23091394#1" fromLane="0" toLane="0"/>
    <connection from="-23091394#2" to="-23091396#3" fromLane="0" toLane="0"/>
    <connection from="-23091394#2" to="23091394#2" fromLane="0" toLane="0"/>

    <connection from="-23091394#3" to="-23091391#3" fromLane="0" toLane="0"/>
    <connection from="-23091394#3" to="-23091394#2" fromLane="0" toLane="0"/>
    <connection from="-23091394#3" to="23091391#4" fromLane="0" toLane="0"/>
    <connection from="-23091394#3" to="23091394#3" fromLane="0" toLane="0"/>

    <connection from="-23091395#0" to="23091395#0" fromLane="0" toLane="0"/>

    <connection from="-23091395#1" to="23091393#2" fromLane="0" toLane="0"/>
    <connection from="-23091395#1" to="-23091395#0" fromLane="0" toLane="0"/>
    <connection from="-23091395#1" to="-23091393#1" fromLane="0" toLane="0"/>
    <connection from="-23091395#1" to="23091395#1" fromLane="0" toLane="0"/>

    <connection from="-23091395#2" to="-23091394#0" fromLane="0" toLane="0"/>
    <connection from="-23091395#2" to="-23091395#1" fromLane="0" toLane="0"/>
    <connection from="-23091395#2" to="23091394#1" fromLane="0" toLane="0"/>
    <connection from="-23091395#2" to="23091395#2" fromLane="0" toLane="0"/>

    <connection from="-23091396#0" to="23091396#0" fromLane="0" toLane="0"/>

    <connection from="-23091396#1" to="23091393#1" fromLane="0" toLane="0"/>
    <connection from="-23091396#1" to="-23091396#0" fromLane="0" toLane="0"/>
    <connection from="-23091396#1" to="-23091393#0" fromLane="0" toLane="0"/>
    <connection from="-23091396#1" to="23091396#1" fromLane="0" toLane="0"/>

    <connection from="-23091396#2" to="-23091396#1" fromLane="0" toLane="0"/>
    <connection from="-23091396#2" to="-23091398" fromLane="0" toLane="0"/>
    <connection from="-23091396#2" to="23091396#2" fromLane="0" toLane="0"/>

    <connection from="-23091396#3" to="-23091396#2" fromLane="0" toLane="0"/>
    <connection from="-23091396#3" to="-23091399" fromLane="0" toLane="0"/>
    <connection from="-23091396#3" to="23091396#3" fromLane="0" toLane="0"/>

    <connection from="-23091396#4" to="-23091394#1" fromLane="0" toLane="0"/>
    <connection from="-23091396#4" to="-23091396#3" fromLane="0" toLane="0"/>
    <connection from="-23091396#4" to="23091394#2" fromLane="0" toLane="0"/>
    <connection from="-23091396#4" to="23091396#4" fromLane="0" toLane="0"/>

    <connection from="-23091396#5" to="-23091396#4" fromLane="0" toLane="0"/>
    <connection from="-23091396#5" to="23091403" fromLane="0" toLane="0"/>
    <connection from="-23091396#5" to="23091396#5" fromLane="0" toLane="0"/>

    <connection from="-23091396#6" to="-23091396#5" fromLane="0" toLane="0"/>
    <connection from="-23091396#6" to="-23091402#1" fromLane="0" toLane="0"/>
    <connection from="-23091396#6" to="23091396#6" fromLane="0" toLane="0"/>

    <connection from="-23091396#7" to="-23091396#6" fromLane="0" toLane="0"/>
    <connection from="-23091396#7" to="23091400" fromLane="0" toLane="0"/>
    <connection from="-23091396#7" to="23091396#7" fromLane="0" toLane="0"/>

    <connection from="-23091398" to="23091391#6" fromLane="0" toLane="0"/>
    <connection from="-23091398" to="-23091391#5" fromLane="0" toLane="0"/>
    <connection from="-23091398" to="23091398" fromLane="0" toLane="0"/>

    <connection from="-23091399" to="23091391#5" fromLane="0" toLane="0"/>
    <connection from="-23091399" to="-23091391#4" fromLane="0" toLane="0"/>
    <connection from="-23091399" to="23091399" fromLane="0" toLane="0"/>

    <connection from="-23091400" to="23091396#7" fromLane="0" toLane="0"/>
    <connection from="-23091400" to="-23091396#6" fromLane="0" toLane="0"/>
    <connection from="-23091400" to="23091400" fromLane="0" toLane="0"/>

    <connection from="-23091401" to="23091391#1" fromLane="0" toLane="0"/>
    <connection from="-23091401" to="-23091391#0" fromLane="0" toLane="0"/>
    <connection from="-23091401" to="23091401" fromLane="0" toLane="0"/>

    <connection from="-23091402#0" to="23091391#2" fromLane="0" toLane="0"/>
    <connection from="-23091402#0" to="-23091391#1" fromLane="0" toLane="0"/>
    <connection from="-23091402#0" to="23091402#0" fromLane="0" toLane="0"/>

    <connection from="-23091402#1" to="-23091402#0" fromLane="0" toLane="0"/>
    <connection from="-23091402#1" to="312274214" fromLane="0" toLane="0"/>

    <connection from="-23091403" to="23091396#5" fromLane="0" toLane="0"/>
    <connection from="-23091403" to="-23091396#4" fromLane="0" toLane="0"/>
    <connection from="-23091403" to="23091403" fromLane="0" toLane="0"/>

    <connection from="-23094442" to="23089303#2" fromLane="0" toLane="0"/>
    <connection from="-23094442" to="-23089303#1" fromLane="0" toLane="0"/>
    <connection from="-23094442" to="23094442" fromLane="0" toLane="0"/>

    <connection from="-23094477#0" to="-23089287" fromLane="0" toLane="0"/>

    <connection from="-23094477#1" to="-23094477#0" fromLane="0" toLane="0"/>
    <connection from="-23094477#1" to="23094477#1" fromLane="0" toLane="0"/>

    <connection from="-286772940#0" to="-954908741" fromLane="0" toLane="0"/>
    <connection from="-286772940#0" to="286772940#0" fromLane="0" toLane="0"/>

    <connection from="-286772940#1" to="-286772940#0" fromLane="0" toLane="0"/>
    <connection from="-286772940#1" to="-23094442" fromLane="0" toLane="0"/>
    <connection from="-286772940#1" to="286772940#1" fromLane="0" toLane="0"/>

    <connection from="-286772940#2" to="619506568#1" fromLane="0" toLane="0"/>
    <connection from="-286772940#2" to="-286772940#1" fromLane="0" toLane="0"/>
    <connection from="-286772940#2" to="-619506568#0" fromLane="0" toLane="0"/>

    <connection from="-312274214" to="23091402#1" fromLane="0" toLane="0"/>
    <connection from="-312274214" to="-23091402#0" fromLane="0" toLane="0"/>
    <connection from="-312274214" to="312274214" fromLane="0" toLane="0"/>

    <connection from="-352963640#0" to="-619506570" fromLane="0" toLane="0"/>
    <connection from="-352963640#0" to="-23089283#3" fromLane="0" toLane="0"/>
    <connection from="-352963640#0" to="195024981" fromLane="0" toLane="0"/>
    <connection from="-352963640#0" to="352963640#0" fromLane="0" toLane="0"/>

    <connection from="-352963640#1" to="-352963640#0" fromLane="0" toLane="0"/>

    <connection from="-352963640#2" to="619506572#0" fromLane="0" toLane="0"/>
    <connection from="-352963640#2" to="-352963640#1" fromLane="0" toLane="0"/>
    <connection from="-352963640#2" to="352963640#2" fromLane="0" toLane="0"/>

    <connection from="-352963640#3" to="-352963640#2" fromLane="0" toLane="0"/>

    <connection from="-352963640#4" to="-352963640#3" fromLane="0" toLane="0"/>

    <connection from="-352963640#5" to="-352963640#4" fromLane="0" toLane="0"/>

    <connection from="-352963640#6" to="-352963640#5" fromLane="0" toLane="0"/>
    <connection from="-352963640#6" to="196489087#0" fromLane="0" toLane="0"/>

    <connection from="-352963640#7" to="23091394#0" fromLane="0" toLane="0"/>
    <connection from="-352963640#7" to="-352963640#6" fromLane="0" toLane="0"/>
    <connection from="-352963640#7" to="352963640#7" fromLane="0" toLane="0"/>

    <connection from="-352963640#8" to="-23091393#2" fromLane="0" toLane="0"/>
    <connection from="-352963640#8" to="-352963640#7" fromLane="0" toLane="0"/>
    <connection from="-352963640#8" to="352963640#8" fromLane="0" toLane="0"/>

    <connection from="-375014110" to="375014110" fromLane="0" toLane="0"/>

    <connection from="-619506568#0" to="23089303#1" fromLane="0" toLane="0"/>
    <connection from="-619506568#0" to="-23089303#0" fromLane="0" toLane="0"/>
    <connection from="-619506568#0" to="619506568#0" fromLane="0" toLane="0"/>

    <connection from="-619506568#1" to="-286772940#1" fromLane="0" toLane="0"/>
    <connection from="-619506568#1" to="-619506568#0" fromLane="0" toLane="0"/>
    <connection from="-619506568#1" to="286772940#2" fromLane="0" toLane="0"/>
    <connection from="-619506568#1" to="619506568#1" fromLane="0" toLane="0"/>

    <connection from="-619506569#0" to="619506570" fromLane="0" toLane="0"/>
    <connection from="-619506569#0" to="-23089317" fromLane="0" toLane="0"/>

    <connection from="-619506569#1" to="-619506568#1" fromLane="0" toLane="0"/>
    <connection from="-619506569#1" to="-619506569#0" fromLane="0" toLane="0"/>

    <connection from="-619506569#2" to="-619506569#1" fromLane="0" toLane="0"/>
    <connection from="-619506569#2" to="-23089316" fromLane="0" toLane="0"/>
    <connection from="-619506569#2" to="619506569#2" fromLane="0" toLane="0"/>

    <connection from="-619506569#3" to="-619506569#2" fromLane="0" toLane="0"/>
    <connection from="-619506569#3" to="-23089315" fromLane="0" toLane="0"/>
    <connection from="-619506569#3" to="619506569#3" fromLane="0" toLane="0"/>

    <connection from="-619506569#4" to="954908741" fromLane="0" toLane="0"/>
    <connection from="-619506569#4" to="-619506569#3" fromLane="0" toLane="0"/>

    <connection from="-619506570" to="-23089317" fromLane="0" toLane="0"/>
    <connection from="-619506570" to="619506569#0" fromLane="0" toLane="0"/>
    <connection from="-619506570" to="619506570" fromLane="0" toLane="0"/>

    <connection from="-619506571" to="-23089314#0" fromLane="0" toLane="0"/>
    <connection from="-619506571" to="23089314#1" fromLane="0" toLane="0"/>
    <connection from="-619506571" to="619506571" fromLane="0" toLane="0"/>

    <connection from="-619506572#0" to="-352963640#1" fromLane="0" toLane="0"/>
    <connection from="-619506572#0" to="352963640#2" fromLane="0" toLane="0"/>
    <connection from="-619506572#0" to="619506572#0" fromLane="0" toLane="0"/>

    <connection from="-619506572#1" to="23089317" fromLane="0" toLane="0"/>
    <connection from="-619506572#1" to="-619506572#0" fromLane="0" toLane="0"/>
    <connection from="-619506572#1" to="-23091395#2" fromLane="0" toLane="0"/>
    <connection from="-619506572#1" to="619506572#1" fromLane="0" toLane="0"/>

    <connection from="-619506572#2" to="-619506572#1" fromLane="0" toLane="0"/>
    <connection from="-619506572#2" to="-23091396#7" fromLane="0" toLane="0"/>
    <connection from="-619506572#2" to="619506572#2" fromLane="0" toLane="0"/>

    <connection from="-619506572#3" to="23089316" fromLane="0" toLane="0"/>
    <connection from="-619506572#3" to="-619506572#2" fromLane="0" toLane="0"/>
    <connection from="-619506572#3" to="619506572#3" fromLane="0" toLane="0"/>

    <connection from="-619506572#4" to="23089315" fromLane="0" toLane="0"/>
    <connection from="-619506572#4" to="-619506572#3" fromLane="0" toLane="0"/>
    <connection from="-619506572#4" to="619506572#4" fromLane="0" toLane="0"/>

    <connection from="-619506572#5" to="-23089314#1" fromLane="0" toLane="0"/>
    <connection from="-619506572#5" to="-619506572#4" fromLane="0" toLane="0"/>
    <connection from="-619506572#5" to="619506572#5" fromLane="0" toLane="0"/>

    <connection from="-619506572#6" to="-619506572#5" fromLane="0" toLane="0"/>
    <connection from="-619506572#6" to="969773706" fromLane="0" toLane="0"/>
    <connection from="-619506572#6" to="619506572#6" fromLane="0" toLane="0"/>

    <connection from="-619506572#7" to="-23089312#1" fromLane="0" toLane="0"/>
    <connection from="-619506572#7" to="-619506572#6" fromLane="0" toLane="0"/>
    <connection from="-619506572#7" to="619506572#7" fromLane="0" toLane="0"/>

    <connection from="-619506572#8" to="-619506572#7" fromLane="0" toLane="0"/>
    <connection from="-619506572#8" to="23091392#0" fromLane="0" toLane="0"/>

    <connection from="-619506573#0" to="-954908738" fromLane="0" toLane="0"/>
    <connection from="-619506573#0" to="23089312#0" fromLane="0" toLane="0"/>

    <connection from="-619506573#1" to="-23089302" fromLane="0" toLane="0"/>
    <connection from="-619506573#1" to="-619506573#0" fromLane="0" toLane="0"/>

    <connection from="-707094864#0" to="-195024981" fromLane="0" toLane="0"/>

    <connection from="-707094864#1" to="-707094864#0" fromLane="0" toLane="0"/>

    <connection from="-707094864#2" to="-707094864#1" fromLane="0" toLane="0"/>
    <connection from="-707094864#2" to="954908745" fromLane="0" toLane="0"/>

    <connection from="-707094878#0" to="707094878#0" fromLane="0" toLane="0"/>

    <connection from="-707094878#1" to="-707094878#0" fromLane="0" toLane="0"/>
    <connection from="-707094878#1" to="707094880#0" fromLane="0" toLane="0"/>
    <connection from="-707094878#1" to="707094878#1" fromLane="0" toLane="0"/>

    <connection from="-707094880#0" to="707094878#1" fromLane="0" toLane="0"/>
    <connection from="-707094880#0" to="-707094878#0" fromLane="0" toLane="0"/>
    <connection from="-707094880#0" to="707094880#0" fromLane="0" toLane="0"/>

    <connection from="-707094880#1" to="-707094881" fromLane="0" toLane="0"/>
    <connection from="-707094880#1" to="-707094880#0" fromLane="0" toLane="0"/>
    <connection from="-707094880#1" to="707094880#1" fromLane="0" toLane="0"/>

    <connection from="-707094881" to="707094881" fromLane="0" toLane="0"/>

    <connection from="-954908738" to="-23089303#2" fromLane="0" toLane="0" keepClear="0"/>

    <connection from="-954908741" to="-619506569#3" fromLane="0" toLane="0"/>
    <connection from="-954908741" to="619506569#4" fromLane="0" toLane="0"/>
    <connection from="-954908741" to="954908741" fromLane="0" toLane="0"/>

    <connection from="-954908745" to="707094864#2" fromLane="0" toLane="0"/>
    <connection from="-954908745" to="-707094864#1" fromLane="0" toLane="0"/>
    <connection from="-954908745" to="954908745" fromLane="0" toLane="0"/>

    <connection from="-954908746#0" to="954908746#0" fromLane="0" toLane="0"/>

    <connection from="-954908746#1" to="-954908745" fromLane="0" toLane="0"/>
    <connection from="-954908746#1" to="-954908746#0" fromLane="0" toLane="0"/>
    <connection from="-954908746#1" to="954908746#1" fromLane="0" toLane="0"/>

    <connection from="-969773706" to="619506572#6" fromLane="0" toLane="0"/>
    <connection from="-969773706" to="-619506572#5" fromLane="0" toLane="0"/>
    <connection from="-969773706" to="969773706" fromLane="0" toLane="0"/>

    <connection from="-969773707" to="-969773706" fromLane="0" toLane="0" keepClear="0"/>

    <connection from="195024977" to="-195024977" fromLane="0" toLane="0"/>

    <connection from="195024981" to="707094864#0" fromLane="0" toLane="0"/>

    <connection from="196489087#0" to="196489087#1" fromLane="0" toLane="0"/>
    <connection from="196489087#0" to="-707094878#1" fromLane="0" toLane="0"/>

    <connection from="196489087#1" to="352963640#1" fromLane="0" toLane="0"/>
    <connection from="196489087#1" to="-352963640#0" fromLane="0" toLane="0"/>

    <connection from="23089283#0" to="23089283#1" fromLane="0" toLane="0"/>
    <connection from="23089283#0" to="23089302" fromLane="0" toLane="0"/>

    <connection from="23089283#1" to="23089283#2" fromLane="0" toLane="0"/>
    <connection from="23089283#1" to="23089303#0" fromLane="0" toLane="0"/>
    <connection from="23089283#1" to="-23089283#1" fromLane="0" toLane="0"/>

    <connection from="23089283#2" to="23089283#3" fromLane="0" toLane="0"/>
    <connection from="23089283#2" to="-286772940#2" fromLane="0" toLane="0"/>
    <connection from="23089283#2" to="-23089283#2" fromLane="0" toLane="0"/>

    <connection from="23089283#3" to="195024981" fromLane="0" toLane="0"/>
    <connection from="23089283#3" to="352963640#0" fromLane="0" toLane="0"/>
    <connection from="23089283#3" to="-619506570" fromLane="0" toLane="0"/>
    <connection from="23089283#3" to="-23089283#3" fromLane="0" toLane="0"/>

    <connection from="23089287" to="23094477#0" fromLane="0" toLane="0"/>

    <connection from="23089302" to="-619506573#0" fromLane="0" toLane="0"/>
    <connection from="23089302" to="619506573#1" fromLane="0" toLane="0"/>
    <connection from="23089302" to="-23089302" fromLane="0" toLane="0"/>

    <connection from="23089303#0" to="619506568#0" fromLane="0" toLane="0"/>
    <connection from="23089303#0" to="23089303#1" fromLane="0" toLane="0"/>

    <connection from="23089303#1" to="23094442" fromLane="0" toLane="0"/>
    <connection from="23089303#1" to="23089303#2" fromLane="0" toLane="0"/>
    <connection from="23089303#1" to="-23089303#1" fromLane="0" toLane="0"/>

    <connection from="23089303#2" to="954908738" fromLane="0" toLane="0"/>
    <connection from="23089303#2" to="-23089303#2" fromLane="0" toLane="0"/>

    <connection from="23089312#0" to="-619506571" fromLane="0" toLane="0"/>
    <connection from="23089312#0" to="23089312#1" fromLane="0" toLane="0"/>
    <connection from="23089312#0" to="-23089312#0" fromLane="0" toLane="0"/>

    <connection from="23089312#1" to="-619506572#6" fromLane="0" toLane="0"/>
    <connection from="23089312#1" to="619506572#7" fromLane="0" toLane="0"/>
    <connection from="23089312#1" to="-23089312#1" fromLane="0" toLane="0"/>

    <connection from="23089314#0" to="23089314#1" fromLane="0" toLane="0"/>
    <connection from="23089314#0" to="619506571" fromLane="0" toLane="0"/>
    <connection from="23089314#0" to="-23089314#0" fromLane="0" toLane="0"/>

    <connection from="23089314#1" to="-619506572#4" fromLane="0" toLane="0"/>
    <connection from="23089314#1" to="619506572#5" fromLane="0" toLane="0"/>
    <connection from="23089314#1" to="-23089314#1" fromLane="0" toLane="0"/>

    <connection from="23089315" to="619506569#3" fromLane="0" toLane="0"/>
    <connection from="23089315" to="-619506569#2" fromLane="0" toLane="0"/>
    <connection from="23089315" to="-23089315" fromLane="0" toLane="0"/>

    <connection from="23089316" to="619506569#2" fromLane="0" toLane="0"/>
    <connection from="23089316" to="-619506569#1" fromLane="0" toLane="0"/>
    <connection from="23089316" to="-23089316" fromLane="0" toLane="0"/>

    <connection from="23089317" to="619506569#0" fromLane="0" toLane="0"/>
    <connection from="23089317" to="619506570" fromLane="0" toLane="0"/>

    <connection from="23091391#0" to="23091401" fromLane="0" toLane="0"/>
    <connection from="23091391#0" to="23091391#1" fromLane="0" toLane="0"/>
    <connection from="23091391#0" to="-23091391#0" fromLane="0" toLane="0"/>

    <connection from="23091391#1" to="23091402#0" fromLane="0" toLane="0"/>
    <connection from="23091391#1" to="23091391#2" fromLane="0" toLane="0"/>
    <connection from="23091391#1" to="-23091391#1" fromLane="0" toLane="0"/>

    <connection from="23091391#2" to="-23091403" fromLane="0" toLane="0"/>
    <connection from="23091391#2" to="23091391#3" fromLane="0" toLane="0"/>
    <connection from="23091391#2" to="-23091391#2" fromLane="0" toLane="0"/>

    <connection from="23091391#3" to="-23091394#2" fromLane="0" toLane="0"/>
    <connection from="23091391#3" to="23091391#4" fromLane="0" toLane="0"/>
    <connection from="23091391#3" to="23091394#3" fromLane="0" toLane="0"/>
    <connection from="23091391#3" to="-23091391#3" fromLane="0" toLane="0"/>

    <connection from="23091391#4" to="23091399" fromLane="0" toLane="0"/>
    <connection from="23091391#4" to="23091391#5" fromLane="0" toLane="0"/>
    <connection from="23091391#4" to="-23091391#4" fromLane="0" toLane="0"/>

    <connection from="23091391#5" to="23091398" fromLane="0" toLane="0"/>
    <connection from="23091391#5" to="23091391#6" fromLane="0" toLane="0"/>
    <connection from="23091391#5" to="-23091391#5" fromLane="0" toLane="0"/>

    <connection from="23091391#6" to="-23091391#6" fromLane="0" toLane="0"/>

    <connection from="23091392#0" to="-23091394#3" fromLane="0" toLane="0"/>
    <connection from="23091392#0" to="23091392#1" fromLane="0" toLane="0"/>
    <connection from="23091392#0" to="-23091392#0" fromLane="0" toLane="0"/>

    <connection from="23091392#1" to="23091393#0" fromLane="0" toLane="0" keepClear="0"/>

    <connection from="23091393#0" to="23091396#1" fromLane="0" toLane="0"/>
    <connection from="23091393#0" to="23091393#1" fromLane="0" toLane="0"/>
    <connection from="23091393#0" to="-23091396#0" fromLane="0" toLane="0"/>
    <connection from="23091393#0" to="-23091393#0" fromLane="0" toLane="0"/>

    <connection from="23091393#1" to="23091395#1" fromLane="0" toLane="0"/>
    <connection from="23091393#1" to="23091393#2" fromLane="0" toLane="0"/>
    <connection from="23091393#1" to="-23091395#0" fromLane="0" toLane="0"/>
    <connection from="23091393#1" to="-23091393#1" fromLane="0" toLane="0"/>

    <connection from="23091393#2" to="-352963640#7" fromLane="0" toLane="0"/>
    <connection from="23091393#2" to="352963640#8" fromLane="0" toLane="0"/>
    <connection from="23091393#2" to="-23091393#2" fromLane="0" toLane="0"/>

    <connection from="23091394#0" to="-23091395#1" fromLane="0" toLane="0"/>
    <connection from="23091394#0" to="23091394#1" fromLane="0" toLane="0"/>
    <connection from="23091394#0" to="23091395#2" fromLane="0" toLane="0"/>
    <connection from="23091394#0" to="-23091394#0" fromLane="0" toLane="0"/>

    <connection from="23091394#1" to="-23091396#3" fromLane="0" toLane="0"/>
    <connection from="23091394#1" to="23091394#2" fromLane="0" toLane="0"/>
    <connection from="23091394#1" to="23091396#4" fromLane="0" toLane="0"/>
    <connection from="23091394#1" to="-23091394#1" fromLane="0" toLane="0"/>

    <connection from="23091394#2" to="23091391#4" fromLane="0" toLane="0"/>
    <connection from="23091394#2" to="23091394#3" fromLane="0" toLane="0"/>
    <connection from="23091394#2" to="-23091391#3" fromLane="0" toLane="0"/>
    <connection from="23091394#2" to="-23091394#2" fromLane="0" toLane="0"/>

    <connection from="23091394#3" to="23091392#1" fromLane="0" toLane="0"/>
    <connection from="23091394#3" to="-23091392#0" fromLane="0" toLane="0"/>
    <connection from="23091394#3" to="-23091394#3" fromLane="0" toLane="0"/>

    <connection from="23091395#0" to="-23091393#1" fromLane="0" toLane="0"/>
    <connection from="23091395#0" to="23091395#1" fromLane="0" toLane="0"/>
    <connection from="23091395#0" to="23091393#2" fromLane="0" toLane="0"/>